! This hub-height wind-speed file was generated by TurbSim (v1.06.00, 21-Sep-2012) on 27-May-2018 at 09:20:12.
!
! The requested statistics for this data were:
!    Mean Total Wind Speed =   11.001 m/s
!    Turbulence Intensity  =   10.000%
!
!   Time  HorSpd  WndDir  VerSpd  HorShr  VerShr  LnVShr  GstSpd
!  (sec)   (m/s)   (deg)   (m/s)     (-)     (-)     (-)   (m/s)
   0.000   11.11   -5.42    0.84   0.000   0.140   0.000    0.00
   0.500   11.39   -1.72    0.80   0.000   0.140   0.000    0.00
   1.000   10.98    1.66    1.10   0.000   0.140   0.000    0.00
   1.500   11.45    2.02    0.09   0.000   0.140   0.000    0.00
   2.000   11.69    1.45    0.12   0.000   0.140   0.000    0.00
   2.500   11.57   -0.12    0.68   0.000   0.140   0.000    0.00
   3.000   11.45   -3.95   -0.28   0.000   0.140   0.000    0.00
   3.500   11.07   -2.67   -0.12   0.000   0.140   0.000    0.00
   4.000   10.88   -3.79    0.06   0.000   0.140   0.000    0.00
   4.500   10.73   -1.76   -0.15   0.000   0.140   0.000    0.00
   5.000   10.85   -1.28   -0.89   0.000   0.140   0.000    0.00
   5.500   10.61   -1.41   -0.88   0.000   0.140   0.000    0.00
   6.000   10.86    2.67   -0.53   0.000   0.140   0.000    0.00
   6.500   10.8     2.17   -0.21   0.000   0.140   0.000    0.00
   7.000   10.71    1.80   -0.25   0.000   0.140   0.000    0.00
   7.500   10.65   -2.34   -0.11   0.000   0.140   0.000    0.00
   8.000   10.96   -3.76   -0.94   0.000   0.140   0.000    0.00
   8.500   11.35   -0.19   -1.44   0.000   0.140   0.000    0.00
   9.000   11.4    -1.90   -1.07   0.000   0.140   0.000    0.00
   9.500   11.26   -1.06   -0.63   0.000   0.140   0.000    0.00
  10.000   11.27   -2.47   -0.71   0.000   0.140   0.000    0.00
  10.500   10.92   -0.18   -0.95   0.000   0.140   0.000    0.00
  11.000   12.17   -0.96   -0.24   0.000   0.140   0.000    0.00
  11.500   12.59   -2.14    0.12   0.000   0.140   0.000    0.00
  12.000   12.04   -3.52    0.00   0.000   0.140   0.000    0.00
  12.500   11.53   -4.07   -0.48   0.000   0.140   0.000    0.00
  13.000   11.45   -3.42   -0.24   0.000   0.140   0.000    0.00
  13.500   11.2    -1.16   -0.40   0.000   0.140   0.000    0.00
  14.000   10.74    0.18    0.02   0.000   0.140   0.000    0.00
  14.500   10.48   -1.63   -0.52   0.000   0.140   0.000    0.00
  15.000   10.26   -3.13   -0.12   0.000   0.140   0.000    0.00
  15.500   10.01   -5.49   -0.08   0.000   0.140   0.000    0.00
  16.000   9.83    -6.04   -0.21   0.000   0.140   0.000    0.00
  16.500   9.85    -3.76   -0.11   0.000   0.140   0.000    0.00
  17.000   9.31    -1.59    0.37   0.000   0.140   0.000    0.00
  17.500   9.88    -1.76    0.57   0.000   0.140   0.000    0.00
  18.000   9.83    -4.06    0.09   0.000   0.140   0.000    0.00
  18.500   9.35    -2.59   -0.21   0.000   0.140   0.000    0.00
  19.000   9.71     1.35   -0.15   0.000   0.140   0.000    0.00
  19.500   9.14     3.55   -0.27   0.000   0.140   0.000    0.00
  20.000   9.14     2.14    0.47   0.000   0.140   0.000    0.00
  20.500   9.05     3.15    0.72   0.000   0.140   0.000    0.00
  21.000   8.39     6.76    0.23   0.000   0.140   0.000    0.00
  21.500   8.87     2.03    0.12   0.000   0.140   0.000    0.00
  22.000   8.69     2.26   -0.08   0.000   0.140   0.000    0.00
  22.500   8.55     3.10   -0.44   0.000   0.140   0.000    0.00
  23.000   8.91     0.95   -0.50   0.000   0.140   0.000    0.00
  23.500   8.74    -2.79   -0.23   0.000   0.140   0.000    0.00
  24.000   8.96    -2.84   -0.21   0.000   0.140   0.000    0.00
  24.500   9.6     -7.23   -0.63   0.000   0.140   0.000    0.00
  25.000   9.91    -6.75   -0.58   0.000   0.140   0.000    0.00
  25.500   9.86    -8.06    0.06   0.000   0.140   0.000    0.00
  26.000   9.73    -5.74    0.20   0.000   0.140   0.000    0.00
  26.500   9.53    -7.08   -0.04   0.000   0.140   0.000    0.00
  27.000   9.67    -5.36   -0.31   0.000   0.140   0.000    0.00
  27.500   10.15   -6.17   -0.33   0.000   0.140   0.000    0.00
  28.000   10.41   -7.71   -0.52   0.000   0.140   0.000    0.00
  28.500   10.08   -5.73   -0.40   0.000   0.140   0.000    0.00
  29.000   10.12    0.35   -0.68   0.000   0.140   0.000    0.00
  29.500   10.38   -1.23   -1.20   0.000   0.140   0.000    0.00
  30.000   10.41   -1.32   -0.92   0.000   0.140   0.000    0.00
  30.500   10.71   -0.76   -1.00   0.000   0.140   0.000    0.00
  31.000   10.95    1.58   -0.46   0.000   0.140   0.000    0.00
  31.500   11.09    1.52   -0.48   0.000   0.140   0.000    0.00
  32.000   11.67   -0.32   -1.12   0.000   0.140   0.000    0.00
  32.500   11.67    1.04   -0.55   0.000   0.140   0.000    0.00
  33.000   11.84    1.14   -0.34   0.000   0.140   0.000    0.00
  33.500   11.59    3.24   -0.15   0.000   0.140   0.000    0.00
  34.000   11.62    2.36    0.01   0.000   0.140   0.000    0.00
  34.500   12.27    0.79   -0.40   0.000   0.140   0.000    0.00
  35.000   12.48   -0.53    0.03   0.000   0.140   0.000    0.00
  35.500   12.43    2.44    0.27   0.000   0.140   0.000    0.00
  36.000   12.71   -0.39    0.35   0.000   0.140   0.000    0.00
  36.500   12.56    1.79   -0.56   0.000   0.140   0.000    0.00
  37.000   12.27    0.69    0.04   0.000   0.140   0.000    0.00
  37.500   12.43   -1.75    0.36   0.000   0.140   0.000    0.00
  38.000   12.13    1.57    0.18   0.000   0.140   0.000    0.00
  38.500   11.95    0.18   -0.41   0.000   0.140   0.000    0.00
  39.000   11.63   -1.14   -0.44   0.000   0.140   0.000    0.00
  39.500   11.56   -1.63   -0.12   0.000   0.140   0.000    0.00
  40.000   12.01   -0.28   -0.54   0.000   0.140   0.000    0.00
  40.500   11.56    1.21   -0.70   0.000   0.140   0.000    0.00
  41.000   11.9    -1.39   -0.75   0.000   0.140   0.000    0.00
  41.500   11.79   -2.74   -0.16   0.000   0.140   0.000    0.00
  42.000   10.71   -3.78   -0.12   0.000   0.140   0.000    0.00
  42.500   10.6    -4.06    0.53   0.000   0.140   0.000    0.00
  43.000   10.99   -5.76    0.29   0.000   0.140   0.000    0.00
  43.500   10.86   -5.69    0.31   0.000   0.140   0.000    0.00
  44.000   10.65   -5.31    0.01   0.000   0.140   0.000    0.00
  44.500   10.38   -2.95   -0.12   0.000   0.140   0.000    0.00
  45.000   10.31   -1.63   -0.34   0.000   0.140   0.000    0.00
  45.500   10.5    -4.54   -0.34   0.000   0.140   0.000    0.00
  46.000   11.06   -0.95   -0.58   0.000   0.140   0.000    0.00
  46.500   10.82   -1.76   -0.72   0.000   0.140   0.000    0.00
  47.000   10.46   -2.56   -0.05   0.000   0.140   0.000    0.00
  47.500   10.44   -3.80   -0.32   0.000   0.140   0.000    0.00
  48.000   10.31   -4.99   -0.05   0.000   0.140   0.000    0.00
  48.500   10.44   -1.59    0.51   0.000   0.140   0.000    0.00
  49.000   10.26   -3.61    0.38   0.000   0.140   0.000    0.00
  49.500   10.39   -4.49    0.45   0.000   0.140   0.000    0.00
  50.000   10.5    -3.82    0.58   0.000   0.140   0.000    0.00
  50.500   10.3    -2.01    0.10   0.000   0.140   0.000    0.00
  51.000   10.03    0.36    0.46   0.000   0.140   0.000    0.00
  51.500   10.18    2.76    0.67   0.000   0.140   0.000    0.00
  52.000   9.48     2.92    0.33   0.000   0.140   0.000    0.00
  52.500   9.78     1.21   -0.20   0.000   0.140   0.000    0.00
  53.000   9.66     2.40   -0.31   0.000   0.140   0.000    0.00
  53.500   10.08    7.34   -0.13   0.000   0.140   0.000    0.00
  54.000   9.8      3.97   -0.27   0.000   0.140   0.000    0.00
  54.500   9.91     0.46    0.48   0.000   0.140   0.000    0.00
  55.000   9.96     0.63    0.05   0.000   0.140   0.000    0.00
  55.500   10.38   -0.01   -0.51   0.000   0.140   0.000    0.00
  56.000   10.17    1.25   -0.11   0.000   0.140   0.000    0.00
  56.500   9.56     1.24   -0.37   0.000   0.140   0.000    0.00
  57.000   10.15    2.47   -0.07   0.000   0.140   0.000    0.00
  57.500   9.93    -3.06    0.35   0.000   0.140   0.000    0.00
  58.000   10.08   -3.51    0.24   0.000   0.140   0.000    0.00
  58.500   10      -5.85    0.11   0.000   0.140   0.000    0.00
  59.000   10.23   -5.83    0.34   0.000   0.140   0.000    0.00
  59.500   10.58   -2.21    0.30   0.000   0.140   0.000    0.00
  60.000   10.2     0.65    0.88   0.000   0.140   0.000    0.00
  60.500   10.31   -0.65    0.40   0.000   0.140   0.000    0.00
  61.000   9.83     1.03    0.58   0.000   0.140   0.000    0.00
  61.500   9.93    -0.84   -0.15   0.000   0.140   0.000    0.00
  62.000   10.11   -3.63    0.08   0.000   0.140   0.000    0.00
  62.500   10.62   -2.64    0.36   0.000   0.140   0.000    0.00
  63.000   10.43   -1.83    0.61   0.000   0.140   0.000    0.00
  63.500   10.92   -2.91    0.50   0.000   0.140   0.000    0.00
  64.000   11.22   -4.26   -0.17   0.000   0.140   0.000    0.00
  64.500   10.96   -1.77   -0.39   0.000   0.140   0.000    0.00
  65.000   11.48   -2.14   -0.25   0.000   0.140   0.000    0.00
  65.500   12.21   -0.28   -0.27   0.000   0.140   0.000    0.00
  66.000   11.91   -0.63    0.03   0.000   0.140   0.000    0.00
  66.500   11.72   -2.84    0.55   0.000   0.140   0.000    0.00
  67.000   11.65   -0.01    1.46   0.000   0.140   0.000    0.00
  67.500   11.61    2.07    0.68   0.000   0.140   0.000    0.00
  68.000   11.64    2.34    0.76   0.000   0.140   0.000    0.00
  68.500   11.26   -0.68    0.55   0.000   0.140   0.000    0.00
  69.000   11.29   -2.15    0.38   0.000   0.140   0.000    0.00
  69.500   10.89   -3.05    0.38   0.000   0.140   0.000    0.00
  70.000   11.17   -1.02    0.54   0.000   0.140   0.000    0.00
  70.500   10.65   -0.69    0.52   0.000   0.140   0.000    0.00
  71.000   10.93    1.26    0.11   0.000   0.140   0.000    0.00
  71.500   11.01    3.32    0.69   0.000   0.140   0.000    0.00
  72.000   11.07    3.82    0.14   0.000   0.140   0.000    0.00
  72.500   11.11    2.66    0.30   0.000   0.140   0.000    0.00
  73.000   10.66    6.35   -0.50   0.000   0.140   0.000    0.00
  73.500   11.07    8.20   -0.39   0.000   0.140   0.000    0.00
  74.000   11.98    5.02    0.16   0.000   0.140   0.000    0.00
  74.500   11.96    6.53   -0.39   0.000   0.140   0.000    0.00
  75.000   11.48    9.68   -0.26   0.000   0.140   0.000    0.00
  75.500   10.88    7.63    0.06   0.000   0.140   0.000    0.00
  76.000   11.02    7.39   -0.34   0.000   0.140   0.000    0.00
  76.500   11.07    7.00   -0.50   0.000   0.140   0.000    0.00
  77.000   11.03    6.34   -0.91   0.000   0.140   0.000    0.00
  77.500   10.82    8.19   -0.86   0.000   0.140   0.000    0.00
  78.000   10.59    3.45   -0.31   0.000   0.140   0.000    0.00
  78.500   11.06    4.07    0.15   0.000   0.140   0.000    0.00
  79.000   11.05    7.40    0.30   0.000   0.140   0.000    0.00
  79.500   10.48    6.76    0.94   0.000   0.140   0.000    0.00
  80.000   10.87    9.32    0.96   0.000   0.140   0.000    0.00
  80.500   11.1     9.75    0.34   0.000   0.140   0.000    0.00
  81.000   10.71    8.47    0.07   0.000   0.140   0.000    0.00
  81.500   11.1    11.83    0.22   0.000   0.140   0.000    0.00
  82.000   11.15   11.62    0.32   0.000   0.140   0.000    0.00
  82.500   11.16    9.06   -0.03   0.000   0.140   0.000    0.00
  83.000   10.5     9.28   -0.90   0.000   0.140   0.000    0.00
  83.500   10.42    8.73   -0.37   0.000   0.140   0.000    0.00
  84.000   10.94    4.69   -0.49   0.000   0.140   0.000    0.00
  84.500   11.11    4.07   -0.41   0.000   0.140   0.000    0.00
  85.000   10.28    2.61   -0.28   0.000   0.140   0.000    0.00
  85.500   10.33    4.37   -0.41   0.000   0.140   0.000    0.00
  86.000   10.42    7.30   -0.16   0.000   0.140   0.000    0.00
  86.500   10.42    6.82   -0.33   0.000   0.140   0.000    0.00
  87.000   10.24    5.07   -0.32   0.000   0.140   0.000    0.00
  87.500   10.36    3.07   -0.29   0.000   0.140   0.000    0.00
  88.000   10.02    1.09   -0.58   0.000   0.140   0.000    0.00
  88.500   9.78     2.44   -0.25   0.000   0.140   0.000    0.00
  89.000   10.33    2.48   -0.15   0.000   0.140   0.000    0.00
  89.500   11.28    2.57    0.27   0.000   0.140   0.000    0.00
  90.000   11.44    1.05    0.46   0.000   0.140   0.000    0.00
  90.500   11.2     2.53    0.32   0.000   0.140   0.000    0.00
  91.000   10.91    0.62    0.06   0.000   0.140   0.000    0.00
  91.500   10.92    1.51    0.05   0.000   0.140   0.000    0.00
  92.000   10.56    0.83    0.12   0.000   0.140   0.000    0.00
  92.500   10.52    0.93    0.51   0.000   0.140   0.000    0.00
  93.000   10.68    1.66    0.34   0.000   0.140   0.000    0.00
  93.500   11.31   -1.79    0.11   0.000   0.140   0.000    0.00
  94.000   11.26   -0.30    0.51   0.000   0.140   0.000    0.00
  94.500   11.35   -4.57    0.67   0.000   0.140   0.000    0.00
  95.000   11.06   -6.47    0.70   0.000   0.140   0.000    0.00
  95.500   10.8    -3.84    0.53   0.000   0.140   0.000    0.00
  96.000   10.91   -2.48    0.29   0.000   0.140   0.000    0.00
  96.500   11.21   -1.41    0.32   0.000   0.140   0.000    0.00
  97.000   11.93   -2.45    0.28   0.000   0.140   0.000    0.00
  97.500   11.66   -1.49    0.34   0.000   0.140   0.000    0.00
  98.000   12.16   -2.53   -0.10   0.000   0.140   0.000    0.00
  98.500   11.68   -3.61    0.09   0.000   0.140   0.000    0.00
  99.000   11.41   -4.98   -0.04   0.000   0.140   0.000    0.00
  99.500   11.09   -1.92    0.11   0.000   0.140   0.000    0.00
 100.000   10.31   -2.18    0.16   0.000   0.140   0.000    0.00
 100.500   10.11    0.15    0.54   0.000   0.140   0.000    0.00
 101.000   9.85    -1.95    0.79   0.000   0.140   0.000    0.00
  