! This hub-height wind-speed file was generated by TurbSim (v1.06.00, 21-Sep-2012) on 06-Apr-2018 at 10:47:58.
!
! The requested statistics for this data were:
!    Mean Total Wind Speed =   12.001 m/s
!    Turbulence Intensity  =   10.000%
!
!   Time  HorSpd  WndDir  VerSpd  HorShr  VerShr  LnVShr  GstSpd
!  (sec)   (m/s)   (deg)   (m/s)     (-)     (-)     (-)   (m/s)
   0.000   13.50    1.56   -0.86   0.000   0.140   0.000    0.00
   1.000   13.77   -0.99   -1.06   0.000   0.140   0.000    0.00
   2.000   13.53   -3.63   -0.98   0.000   0.140   0.000    0.00
   3.000   13.15   -1.85   -1.15   0.000   0.140   0.000    0.00
   4.000   13.35   -2.25   -1.48   0.000   0.140   0.000    0.00
   5.000   13.28   -2.01   -0.72   0.000   0.140   0.000    0.00
   6.000   13.70   -0.29   -0.80   0.000   0.140   0.000    0.00
   7.000   13.62   -0.91   -0.67   0.000   0.140   0.000    0.00
   8.000   14.08   -0.89   -0.67   0.000   0.140   0.000    0.00
   9.000   13.51   -1.07   -0.44   0.000   0.140   0.000    0.00
  10.000   12.63   -1.86   -0.85   0.000   0.140   0.000    0.00
  11.000   12.33   -1.37   -0.44   0.000   0.140   0.000    0.00
  12.000   12.85    0.07   -0.36   0.000   0.140   0.000    0.00
  13.000   13.20    0.22   -0.25   0.000   0.140   0.000    0.00
  14.000   13.91   -1.25    0.32   0.000   0.140   0.000    0.00
  15.000   13.74   -4.19    0.08   0.000   0.140   0.000    0.00
  16.000   12.81   -5.81    0.22   0.000   0.140   0.000    0.00
  17.000   12.21   -8.19    0.01   0.000   0.140   0.000    0.00
  18.000   11.86   -6.99   -0.36   0.000   0.140   0.000    0.00
  19.000   11.84   -8.24   -0.15   0.000   0.140   0.000    0.00
  20.000   12.27   -9.27    0.24   0.000   0.140   0.000    0.00
  21.000   11.04   -9.78   -0.04   0.000   0.140   0.000    0.00
  22.000   11.03   -8.21   -0.31   0.000   0.140   0.000    0.00
  23.000   11.57   -9.96    0.35   0.000   0.140   0.000    0.00
  24.000   10.78  -12.22    0.51   0.000   0.140   0.000    0.00
  25.000   10.63  -12.75    0.20   0.000   0.140   0.000    0.00
  26.000   11.61  -16.23    0.42   0.000   0.140   0.000    0.00
  27.000   11.27  -10.68    0.45   0.000   0.140   0.000    0.00
  28.000   11.45  -10.02    0.12   0.000   0.140   0.000    0.00
  29.000   11.10  -13.46   -0.28   0.000   0.140   0.000    0.00
  30.000   11.62  -10.87   -0.61   0.000   0.140   0.000    0.00
  31.000   11.45   -7.36   -0.85   0.000   0.140   0.000    0.00
  32.000   10.63   -3.12    0.18   0.000   0.140   0.000    0.00
  33.000   10.63   -1.97   -0.66   0.000   0.140   0.000    0.00
  34.000   10.89   -1.19   -0.68   0.000   0.140   0.000    0.00
  35.000   11.55   -3.74    0.23   0.000   0.140   0.000    0.00
  36.000   11.22   -3.42    0.16   0.000   0.140   0.000    0.00
  37.000   10.44   -3.55    0.85   0.000   0.140   0.000    0.00
  38.000   10.20   -3.84    0.11   0.000   0.140   0.000    0.00
  39.000    9.70   -1.73    0.04   0.000   0.140   0.000    0.00
  40.000   10.44    3.70    0.31   0.000   0.140   0.000    0.00
  41.000   10.10   -0.47    0.25   0.000   0.140   0.000    0.00
  42.000   10.53    6.16   -0.16   0.000   0.140   0.000    0.00
  43.000   10.93    5.39    0.31   0.000   0.140   0.000    0.00
  44.000   11.55   -0.81    1.02   0.000   0.140   0.000    0.00
  45.000   11.68   -0.71    1.30   0.000   0.140   0.000    0.00
  46.000   11.88    2.09    0.26   0.000   0.140   0.000    0.00
  47.000   12.46    4.46    0.33   0.000   0.140   0.000    0.00
  48.000   12.22    1.18   -0.32   0.000   0.140   0.000    0.00
  49.000   12.36    0.06    0.42   0.000   0.140   0.000    0.00
  50.000   12.49    3.80    0.18   0.000   0.140   0.000    0.00
  51.000   12.51    7.64    0.43   0.000   0.140   0.000    0.00
  52.000   12.42    4.43   -0.05   0.000   0.140   0.000    0.00
  53.000   11.81    1.89   -0.50   0.000   0.140   0.000    0.00
  54.000   12.34   -1.50   -0.57   0.000   0.140   0.000    0.00
  55.000   12.30    4.33   -0.46   0.000   0.140   0.000    0.00
  56.000   12.08    3.43   -0.21   0.000   0.140   0.000    0.00
  57.000   11.68    6.18    0.32   0.000   0.140   0.000    0.00
  58.000   11.98   -0.34    0.46   0.000   0.140   0.000    0.00
  59.000   12.48    2.23    0.92   0.000   0.140   0.000    0.00
  60.000   12.15    2.60    0.68   0.000   0.140   0.000    0.00
  61.000   11.58    1.95    0.44   0.000   0.140   0.000    0.00
  62.000   11.27    0.18    0.49   0.000   0.140   0.000    0.00
  63.000   10.76   -0.08   -0.20   0.000   0.140   0.000    0.00
  64.000   10.97    0.25   -0.48   0.000   0.140   0.000    0.00
  65.000   10.60   -2.09    0.18   0.000   0.140   0.000    0.00
  66.000   10.98   -0.01    0.12   0.000   0.140   0.000    0.00
  67.000   11.43   -0.19    0.28   0.000   0.140   0.000    0.00
  68.000   11.00    1.42   -0.15   0.000   0.140   0.000    0.00
  69.000   11.01   -0.49   -0.46   0.000   0.140   0.000    0.00
  70.000   11.12    2.72    0.31   0.000   0.140   0.000    0.00
  71.000   10.99    2.73    0.13   0.000   0.140   0.000    0.00
  72.000   11.15    8.45    0.21   0.000   0.140   0.000    0.00
  73.000   11.37    8.73    0.91   0.000   0.140   0.000    0.00
  74.000   10.78    5.96    0.92   0.000   0.140   0.000    0.00
  75.000   11.26    9.79   -0.10   0.000   0.140   0.000    0.00
  76.000   10.89   10.38   -0.12   0.000   0.140   0.000    0.00
  77.000   10.74    5.76   -0.38   0.000   0.140   0.000    0.00
  78.000   10.60    7.37    0.03   0.000   0.140   0.000    0.00
  79.000   10.62    4.40   -1.34   0.000   0.140   0.000    0.00
  80.000   10.77   -0.58   -0.40   0.000   0.140   0.000    0.00
  81.000   11.43    1.74   -0.44   0.000   0.140   0.000    0.00
  82.000   11.89    0.06   -0.78   0.000   0.140   0.000    0.00
  83.000   11.46   -4.48   -0.41   0.000   0.140   0.000    0.00
  84.000   12.03   -6.43   -0.76   0.000   0.140   0.000    0.00
  85.000   11.72   -2.84   -0.72   0.000   0.140   0.000    0.00
  86.000   11.98   -0.14   -0.31   0.000   0.140   0.000    0.00
  87.000   12.37    0.12   -0.75   0.000   0.140   0.000    0.00
  88.000   13.29    2.00   -0.17   0.000   0.140   0.000    0.00
  89.000   13.59    2.53   -0.67   0.000   0.140   0.000    0.00
  90.000   12.73    2.58   -0.53   0.000   0.140   0.000    0.00
  91.000   13.16    3.38   -0.17   0.000   0.140   0.000    0.00
  92.000   13.32    6.50   -0.16   0.000   0.140   0.000    0.00
  93.000   13.30    9.86   -0.44   0.000   0.140   0.000    0.00
  94.000   13.10    9.20    0.37   0.000   0.140   0.000    0.00
  95.000   13.65    6.86    0.42   0.000   0.140   0.000    0.00
  96.000   13.68    8.06    0.50   0.000   0.140   0.000    0.00
  97.000   13.68    3.46    0.52   0.000   0.140   0.000    0.00
  98.000   14.19    2.79    0.46   0.000   0.140   0.000    0.00
  99.000   14.77    5.97    0.35   0.000   0.140   0.000    0.00
 100.000   14.48    4.34    0.16   0.000   0.140   0.000    0.00
 101.000   14.61    1.59    0.19   0.000   0.140   0.000    0.00
 102.000   14.15    4.14    0.49   0.000   0.140   0.000    0.00
 103.000   14.42    3.71    0.57   0.000   0.140   0.000    0.00
 104.000   13.99    5.18    0.52   0.000   0.140   0.000    0.00
 105.000   13.19    5.27    0.31   0.000   0.140   0.000    0.00
 106.000   13.19    5.11    0.25   0.000   0.140   0.000    0.00
 107.000   12.35    5.27   -0.12   0.000   0.140   0.000    0.00
 108.000   11.86    1.22    0.32   0.000   0.140   0.000    0.00
 109.000   11.44   -2.18    0.31   0.000   0.140   0.000    0.00
 110.000   11.84   -0.40   -0.31   0.000   0.140   0.000    0.00
 111.000   13.09    0.41   -0.43   0.000   0.140   0.000    0.00
 112.000   13.99    1.17   -0.71   0.000   0.140   0.000    0.00
 113.000   14.04    4.31   -0.40   0.000   0.140   0.000    0.00
 114.000   13.58    4.80   -0.30   0.000   0.140   0.000    0.00
 115.000   14.18    1.26   -0.54   0.000   0.140   0.000    0.00
 116.000   13.77    1.82   -0.16   0.000   0.140   0.000    0.00
 117.000   13.42    0.89   -0.17   0.000   0.140   0.000    0.00
 118.000   13.05    2.94   -0.46   0.000   0.140   0.000    0.00
 119.000   12.76    7.24   -0.33   0.000   0.140   0.000    0.00
 120.000   12.77    5.90    0.12   0.000   0.140   0.000    0.00
 121.000   13.09    2.92   -0.16   0.000   0.140   0.000    0.00
 122.000   12.44    2.57   -0.59   0.000   0.140   0.000    0.00
 123.000   12.07    3.05   -0.60   0.000   0.140   0.000    0.00
 124.000   12.44    5.24    0.25   0.000   0.140   0.000    0.00
 125.000   11.96    3.62    0.34   0.000   0.140   0.000    0.00
 126.000   11.72    0.37    0.24   0.000   0.140   0.000    0.00
 127.000   11.73    2.94    0.14   0.000   0.140   0.000    0.00
 128.000   11.19    5.24   -0.14   0.000   0.140   0.000    0.00
 129.000   11.45    2.65   -0.39   0.000   0.140   0.000    0.00
 130.000   12.40    2.52   -0.13   0.000   0.140   0.000    0.00
 131.000   12.29    6.77    0.24   0.000   0.140   0.000    0.00
 132.000   11.82    3.89   -0.51   0.000   0.140   0.000    0.00
 133.000   12.14    2.66   -0.51   0.000   0.140   0.000    0.00
 134.000   12.23    4.14   -0.18   0.000   0.140   0.000    0.00
 135.000   11.91    1.55   -0.42   0.000   0.140   0.000    0.00
 136.000   11.26    3.62   -1.16   0.000   0.140   0.000    0.00
 137.000   11.42   -0.45   -0.22   0.000   0.140   0.000    0.00
 138.000   12.26   -0.49    0.28   0.000   0.140   0.000    0.00
 139.000   12.12    1.71    0.00   0.000   0.140   0.000    0.00
 140.000   11.81    3.38   -1.13   0.000   0.140   0.000    0.00
 141.000   12.69    5.46    0.21   0.000   0.140   0.000    0.00
 142.000   12.88    2.44   -0.01   0.000   0.140   0.000    0.00
 143.000   12.93   -1.22    1.01   0.000   0.140   0.000    0.00
 144.000   12.82    0.35    0.63   0.000   0.140   0.000    0.00
 145.000   12.25    1.43   -0.04   0.000   0.140   0.000    0.00
 146.000   12.53    3.60   -0.13   0.000   0.140   0.000    0.00
 147.000   12.36    3.23   -0.94   0.000   0.140   0.000    0.00
 148.000   12.03    5.95   -1.05   0.000   0.140   0.000    0.00
 149.000   12.48    4.09   -0.83   0.000   0.140   0.000    0.00
 150.000   12.52    2.84   -0.36   0.000   0.140   0.000    0.00
 151.000   12.88    3.53   -0.56   0.000   0.140   0.000    0.00
 152.000   12.71    1.68   -0.50   0.000   0.140   0.000    0.00
 153.000   12.79    3.49   -0.01   0.000   0.140   0.000    0.00
 154.000   12.89    5.36    0.60   0.000   0.140   0.000    0.00
 155.000   13.13    6.84    0.54   0.000   0.140   0.000    0.00
 156.000   12.70    3.26   -0.48   0.000   0.140   0.000    0.00
 157.000   12.47    5.24   -0.12   0.000   0.140   0.000    0.00
 158.000   12.98    4.96    0.34   0.000   0.140   0.000    0.00
 159.000   13.25    9.14    0.19   0.000   0.140   0.000    0.00
 160.000   12.95    5.56   -0.60   0.000   0.140   0.000    0.00
 161.000   13.77    3.44   -0.10   0.000   0.140   0.000    0.00
 162.000   13.69    1.56   -0.42   0.000   0.140   0.000    0.00
 163.000   13.88    1.66   -0.29   0.000   0.140   0.000    0.00
 164.000   13.06    6.65    0.45   0.000   0.140   0.000    0.00
 165.000   12.33    5.93    0.45   0.000   0.140   0.000    0.00
 166.000   12.76    5.06    0.35   0.000   0.140   0.000    0.00
 167.000   12.36    4.34   -0.15   0.000   0.140   0.000    0.00
 168.000   11.58   -1.03   -0.02   0.000   0.140   0.000    0.00
 169.000   12.38    1.55   -0.23   0.000   0.140   0.000    0.00
 170.000   12.28    3.65    0.40   0.000   0.140   0.000    0.00
 171.000   12.63   -2.27   -0.07   0.000   0.140   0.000    0.00
 172.000   12.33   -6.41   -0.02   0.000   0.140   0.000    0.00
 173.000   12.17   -5.87    0.24   0.000   0.140   0.000    0.00
 174.000   12.47   -4.82   -0.56   0.000   0.140   0.000    0.00
 175.000   12.36   -7.07   -0.56   0.000   0.140   0.000    0.00
 176.000   12.72   -2.71   -0.02   0.000   0.140   0.000    0.00
 177.000   12.04   -1.18   -0.52   0.000   0.140   0.000    0.00
 178.000   12.03   -1.67   -0.71   0.000   0.140   0.000    0.00
 179.000   12.44   -2.69   -0.74   0.000   0.140   0.000    0.00
 180.000   11.58    0.39   -0.46   0.000   0.140   0.000    0.00
 181.000   11.97   -0.66    0.53   0.000   0.140   0.000    0.00
 182.000   11.82   -1.84    0.27   0.000   0.140   0.000    0.00
 183.000   11.80    0.30    0.24   0.000   0.140   0.000    0.00
 184.000   11.49   -3.55   -0.31   0.000   0.140   0.000    0.00
 185.000   11.34   -6.14    0.12   0.000   0.140   0.000    0.00
 186.000   12.40   -2.48    0.09   0.000   0.140   0.000    0.00
 187.000   11.77   -3.11    0.07   0.000   0.140   0.000    0.00
 188.000   10.78   -1.26    0.49   0.000   0.140   0.000    0.00
 189.000   10.62   -1.58    0.94   0.000   0.140   0.000    0.00
 190.000   10.86   -2.96    0.81   0.000   0.140   0.000    0.00
 191.000   10.78   -4.70    0.43   0.000   0.140   0.000    0.00
 192.000   12.61   -1.55    0.41   0.000   0.140   0.000    0.00
 193.000   12.98   -0.17    1.81   0.000   0.140   0.000    0.00
 194.000   12.99   -1.31    1.00   0.000   0.140   0.000    0.00
 195.000   12.60   -1.90    0.84   0.000   0.140   0.000    0.00
 196.000   13.35   -1.18    0.56   0.000   0.140   0.000    0.00
 197.000   13.70   -2.76   -0.43   0.000   0.140   0.000    0.00
 198.000   13.40   -4.27   -0.79   0.000   0.140   0.000    0.00
 199.000   12.28   -3.33   -1.03   0.000   0.140   0.000    0.00
 200.000   12.47   -6.83   -0.63   0.000   0.140   0.000    0.00
 201.000   12.35   -7.98    0.21   0.000   0.140   0.000    0.00
 202.000   12.30  -12.35    0.35   0.000   0.140   0.000    0.00
 203.000   12.49   -8.35    0.39   0.000   0.140   0.000    0.00
 204.000   12.10   -7.84    0.54   0.000   0.140   0.000    0.00
 205.000   11.83   -9.66    0.38   0.000   0.140   0.000    0.00
 206.000   12.25   -4.37   -0.07   0.000   0.140   0.000    0.00
 207.000   11.90   -2.67    0.68   0.000   0.140   0.000    0.00
 208.000   12.77    1.41    0.44   0.000   0.140   0.000    0.00
 209.000   12.82    0.91    0.59   0.000   0.140   0.000    0.00
 210.000   12.97    0.05    0.24   0.000   0.140   0.000    0.00
 211.000   12.90    0.54    0.02   0.000   0.140   0.000    0.00
 212.000   12.34   -3.15    0.31   0.000   0.140   0.000    0.00
 213.000   12.63   -0.18    0.46   0.000   0.140   0.000    0.00
 214.000   11.54   -1.33    0.30   0.000   0.140   0.000    0.00
 215.000   10.86   -5.84   -0.24   0.000   0.140   0.000    0.00
 216.000   11.28   -2.35   -0.10   0.000   0.140   0.000    0.00
 217.000   11.48   -2.04    0.28   0.000   0.140   0.000    0.00
 218.000   12.67   -2.87    0.68   0.000   0.140   0.000    0.00
 219.000   13.09   -6.08    0.27   0.000   0.140   0.000    0.00
 220.000   13.22   -4.05   -0.03   0.000   0.140   0.000    0.00
 221.000   12.57   -4.71   -0.26   0.000   0.140   0.000    0.00
 222.000   12.36   -1.11    0.18   0.000   0.140   0.000    0.00
 223.000   12.08   -0.29    0.27   0.000   0.140   0.000    0.00
 224.000   11.75    2.07   -0.07   0.000   0.140   0.000    0.00
 225.000   11.85    1.88   -0.71   0.000   0.140   0.000    0.00
 226.000   11.89   -1.10   -0.14   0.000   0.140   0.000    0.00
 227.000   11.85   -3.09   -0.66   0.000   0.140   0.000    0.00
 228.000   12.16    0.66   -0.49   0.000   0.140   0.000    0.00
 229.000   12.16    1.19    0.37   0.000   0.140   0.000    0.00
 230.000   12.06    2.64   -0.34   0.000   0.140   0.000    0.00
 231.000   12.48    3.66   -0.28   0.000   0.140   0.000    0.00
 232.000   12.95    2.07   -0.08   0.000   0.140   0.000    0.00
 233.000   13.62   -0.15    0.46   0.000   0.140   0.000    0.00
 234.000   13.60    0.19    0.04   0.000   0.140   0.000    0.00
 235.000   13.02    2.19    0.36   0.000   0.140   0.000    0.00
 236.000   12.82    2.71    0.47   0.000   0.140   0.000    0.00
 237.000   12.74    3.87    0.27   0.000   0.140   0.000    0.00
 238.000   12.36    4.20    0.09   0.000   0.140   0.000    0.00
 239.000   12.44    8.81   -0.11   0.000   0.140   0.000    0.00
 240.000   12.32    6.02   -0.22   0.000   0.140   0.000    0.00
 241.000   11.28    4.18    0.04   0.000   0.140   0.000    0.00
 242.000   11.29    1.41   -0.17   0.000   0.140   0.000    0.00
 243.000   12.00    2.58   -0.70   0.000   0.140   0.000    0.00
 244.000   11.62    1.98   -0.34   0.000   0.140   0.000    0.00
 245.000   11.73    3.84   -0.07   0.000   0.140   0.000    0.00
 246.000   12.23    3.86   -0.46   0.000   0.140   0.000    0.00
 247.000   11.58    4.20   -0.42   0.000   0.140   0.000    0.00
 248.000   11.60    3.32   -0.15   0.000   0.140   0.000    0.00
 249.000   11.78   -0.03   -0.43   0.000   0.140   0.000    0.00
 250.000   11.31    2.73   -0.19   0.000   0.140   0.000    0.00
 251.000   11.86    2.21   -0.65   0.000   0.140   0.000    0.00
 252.000   11.77    2.00   -0.44   0.000   0.140   0.000    0.00
 253.000   11.56   -0.79   -0.22   0.000   0.140   0.000    0.00
 254.000   11.06   -0.55   -0.04   0.000   0.140   0.000    0.00
 255.000   11.65   -0.75    0.25   0.000   0.140   0.000    0.00
 256.000   11.67    0.02    0.33   0.000   0.140   0.000    0.00
 257.000   11.07    3.96    0.37   0.000   0.140   0.000    0.00
 258.000   10.39    1.94    0.85   0.000   0.140   0.000    0.00
 259.000   10.53    1.57    0.37   0.000   0.140   0.000    0.00
 260.000   12.20    1.15    0.01   0.000   0.140   0.000    0.00
 261.000   13.06    4.20    0.34   0.000   0.140   0.000    0.00
 262.000   12.05    3.02   -0.39   0.000   0.140   0.000    0.00
 263.000   12.13    4.92    0.11   0.000   0.140   0.000    0.00
 264.000   12.32    8.16    0.42   0.000   0.140   0.000    0.00
 265.000   11.67    6.78    0.00   0.000   0.140   0.000    0.00
 266.000   11.12    4.04   -0.33   0.000   0.140   0.000    0.00
 267.000   11.76    2.69    0.22   0.000   0.140   0.000    0.00
 268.000   11.80    1.43   -0.21   0.000   0.140   0.000    0.00
 269.000   11.79   -0.35    0.06   0.000   0.140   0.000    0.00
 270.000   11.94   -0.53    0.08   0.000   0.140   0.000    0.00
 271.000   12.37    1.14   -0.11   0.000   0.140   0.000    0.00
 272.000   12.00    1.28   -0.11   0.000   0.140   0.000    0.00
 273.000   12.34    1.46   -0.37   0.000   0.140   0.000    0.00
 274.000   12.76   -1.17    0.28   0.000   0.140   0.000    0.00
 275.000   12.19   -2.16    0.21   0.000   0.140   0.000    0.00
 276.000   11.85    1.65    0.45   0.000   0.140   0.000    0.00
 277.000   11.40    3.62    0.60   0.000   0.140   0.000    0.00
 278.000   11.92    4.61    0.15   0.000   0.140   0.000    0.00
 279.000   11.81    4.86   -0.05   0.000   0.140   0.000    0.00
 280.000   11.54    3.33   -0.06   0.000   0.140   0.000    0.00
 281.000   12.07   -1.44   -0.24   0.000   0.140   0.000    0.00
 282.000   12.12   -7.34    0.17   0.000   0.140   0.000    0.00
 283.000   11.35   -7.01    0.14   0.000   0.140   0.000    0.00
 284.000   11.13   -5.48    0.63   0.000   0.140   0.000    0.00
 285.000   10.99   -2.65   -0.50   0.000   0.140   0.000    0.00
 286.000   11.62    1.74   -0.59   0.000   0.140   0.000    0.00
 287.000   11.71    1.34   -0.39   0.000   0.140   0.000    0.00
 288.000   11.23   -1.26   -0.40   0.000   0.140   0.000    0.00
 289.000   10.87    3.28   -0.49   0.000   0.140   0.000    0.00
 290.000    9.79   -0.31   -0.35   0.000   0.140   0.000    0.00
 291.000    9.72    2.52    0.01   0.000   0.140   0.000    0.00
 292.000    9.97    1.42    0.02   0.000   0.140   0.000    0.00
 293.000   10.29   -1.69   -0.54   0.000   0.140   0.000    0.00
 294.000    9.95    4.25    0.10   0.000   0.140   0.000    0.00
 295.000    9.31    4.11    0.62   0.000   0.140   0.000    0.00
 296.000    9.81    1.17    0.41   0.000   0.140   0.000    0.00
 297.000   10.80   -0.42    0.52   0.000   0.140   0.000    0.00
 298.000   11.04   -0.99    0.92   0.000   0.140   0.000    0.00
 299.000   11.46   -6.57    0.55   0.000   0.140   0.000    0.00
 300.000   11.44   -4.02    0.54   0.000   0.140   0.000    0.00
 301.000   11.30   -2.44    0.42   0.000   0.140   0.000    0.00
 302.000   11.04   -4.12   -0.19   0.000   0.140   0.000    0.00
 303.000   10.51   -0.51   -0.18   0.000   0.140   0.000    0.00
 304.000   10.80    1.51    0.00   0.000   0.140   0.000    0.00
 305.000   10.53   -0.76    0.27   0.000   0.140   0.000    0.00
 306.000   10.44   -2.83    0.27   0.000   0.140   0.000    0.00
 307.000   11.50    0.54    0.22   0.000   0.140   0.000    0.00
 308.000   11.25    6.23    0.09   0.000   0.140   0.000    0.00
 309.000   11.56    3.61   -0.26   0.000   0.140   0.000    0.00
 310.000   11.53    2.50   -0.66   0.000   0.140   0.000    0.00
 311.000   11.50   -0.36   -0.95   0.000   0.140   0.000    0.00
 312.000   12.08   -3.49   -0.25   0.000   0.140   0.000    0.00
 313.000   11.97   -1.45    0.20   0.000   0.140   0.000    0.00
 314.000   12.31    0.99    0.44   0.000   0.140   0.000    0.00
 315.000   12.33   -2.46    0.24   0.000   0.140   0.000    0.00
 316.000   11.98    2.45   -0.45   0.000   0.140   0.000    0.00
 317.000   12.04    1.93   -0.53   0.000   0.140   0.000    0.00
 318.000   11.95   -2.91   -0.10   0.000   0.140   0.000    0.00
 319.000   11.20   -2.42   -0.05   0.000   0.140   0.000    0.00
 320.000   10.87   -3.23    0.01   0.000   0.140   0.000    0.00
 321.000   11.46    0.99   -0.11   0.000   0.140   0.000    0.00
 322.000   11.62   -0.45   -0.54   0.000   0.140   0.000    0.00
 323.000   11.63   -3.84   -0.36   0.000   0.140   0.000    0.00
 324.000   11.44   -1.11    0.03   0.000   0.140   0.000    0.00
 325.000   11.02   -0.90   -0.32   0.000   0.140   0.000    0.00
 326.000   11.73   -1.62    0.20   0.000   0.140   0.000    0.00
 327.000   12.71    1.24    0.04   0.000   0.140   0.000    0.00
 328.000   12.04   -1.10    0.50   0.000   0.140   0.000    0.00
 329.000   12.12    3.06    1.18   0.000   0.140   0.000    0.00
 330.000   12.05    3.65    1.22   0.000   0.140   0.000    0.00
 331.000   12.06    2.53    1.15   0.000   0.140   0.000    0.00
 332.000   12.42    1.30    0.85   0.000   0.140   0.000    0.00
 333.000   12.21    0.45    0.88   0.000   0.140   0.000    0.00
 334.000   12.15    2.05   -0.37   0.000   0.140   0.000    0.00
 335.000   12.54    4.81    0.77   0.000   0.140   0.000    0.00
 336.000   11.52    2.30    0.44   0.000   0.140   0.000    0.00
 337.000   10.83    4.47    0.56   0.000   0.140   0.000    0.00
 338.000   10.41    9.64    1.16   0.000   0.140   0.000    0.00
 339.000   10.31    9.78    1.25   0.000   0.140   0.000    0.00
 340.000   10.69    3.84    1.22   0.000   0.140   0.000    0.00
 341.000    9.92    2.53    0.72   0.000   0.140   0.000    0.00
 342.000   10.48   -0.14    0.39   0.000   0.140   0.000    0.00
 343.000   10.54   -4.47    0.37   0.000   0.140   0.000    0.00
 344.000   10.34   -6.42    0.06   0.000   0.140   0.000    0.00
 345.000   10.39   -5.39    0.45   0.000   0.140   0.000    0.00
 346.000   11.72    2.65    0.90   0.000   0.140   0.000    0.00
 347.000   12.26    4.76    0.05   0.000   0.140   0.000    0.00
 348.000   12.55    1.86   -0.94   0.000   0.140   0.000    0.00
 349.000   11.78   -1.94   -0.37   0.000   0.140   0.000    0.00
 350.000   11.21    0.78   -0.08   0.000   0.140   0.000    0.00
 351.000   11.91    6.51   -0.36   0.000   0.140   0.000    0.00
 352.000   11.53    4.51   -0.07   0.000   0.140   0.000    0.00
 353.000   11.56    4.42   -0.21   0.000   0.140   0.000    0.00
 354.000   11.71    2.25    0.18   0.000   0.140   0.000    0.00
 355.000   11.93    4.85   -0.12   0.000   0.140   0.000    0.00
 356.000   12.64    3.11    1.03   0.000   0.140   0.000    0.00
 357.000   12.44    0.24    0.17   0.000   0.140   0.000    0.00
 358.000   12.06    3.01   -0.16   0.000   0.140   0.000    0.00
 359.000   11.20   -4.00    0.53   0.000   0.140   0.000    0.00
 360.000   11.62   -1.14    0.46   0.000   0.140   0.000    0.00
 361.000   12.34   -2.54    0.53   0.000   0.140   0.000    0.00
 362.000   12.81   -2.03    0.65   0.000   0.140   0.000    0.00
 363.000   13.12   -1.26   -0.42   0.000   0.140   0.000    0.00
 364.000   12.69   -3.36   -0.81   0.000   0.140   0.000    0.00
 365.000   13.28   -1.74   -0.31   0.000   0.140   0.000    0.00
 366.000   11.89    3.63   -0.32   0.000   0.140   0.000    0.00
 367.000   11.96    7.78   -0.03   0.000   0.140   0.000    0.00
 368.000   12.01    3.73    0.04   0.000   0.140   0.000    0.00
 369.000   12.69   -1.15    0.33   0.000   0.140   0.000    0.00
 370.000   12.18    3.87    0.49   0.000   0.140   0.000    0.00
 371.000   12.48    0.03    1.09   0.000   0.140   0.000    0.00
 372.000   12.55    1.06    1.59   0.000   0.140   0.000    0.00
 373.000   13.30    1.76    1.54   0.000   0.140   0.000    0.00
 374.000   13.21   -0.10    1.51   0.000   0.140   0.000    0.00
 375.000   13.19    3.08    0.54   0.000   0.140   0.000    0.00
 376.000   13.91    2.49    0.30   0.000   0.140   0.000    0.00
 377.000   13.53    4.51    0.32   0.000   0.140   0.000    0.00
 378.000   12.86    4.95    0.24   0.000   0.140   0.000    0.00
 379.000   12.92    5.54    0.29   0.000   0.140   0.000    0.00
 380.000   12.61    0.80    0.55   0.000   0.140   0.000    0.00
 381.000   12.65   -1.49    0.14   0.000   0.140   0.000    0.00
 382.000   12.71   -0.62   -0.10   0.000   0.140   0.000    0.00
 383.000   13.69   -0.58    0.78   0.000   0.140   0.000    0.00
 384.000   14.67    0.15    0.26   0.000   0.140   0.000    0.00
 385.000   14.05    2.27   -0.08   0.000   0.140   0.000    0.00
 386.000   13.31    1.99    0.07   0.000   0.140   0.000    0.00
 387.000   14.43    4.31    0.67   0.000   0.140   0.000    0.00
 388.000   14.02    4.25    1.24   0.000   0.140   0.000    0.00
 389.000   13.48    4.60    0.23   0.000   0.140   0.000    0.00
 390.000   14.31    5.46    0.08   0.000   0.140   0.000    0.00
 391.000   14.12    6.29   -0.19   0.000   0.140   0.000    0.00
 392.000   13.30    6.22    0.41   0.000   0.140   0.000    0.00
 393.000   13.24    6.78   -0.16   0.000   0.140   0.000    0.00
 394.000   12.93    2.10   -0.41   0.000   0.140   0.000    0.00
 395.000   12.93    1.00    0.34   0.000   0.140   0.000    0.00
 396.000   12.82    0.14    1.09   0.000   0.140   0.000    0.00
 397.000   13.28   -2.19    0.80   0.000   0.140   0.000    0.00
 398.000   12.65    0.23    0.98   0.000   0.140   0.000    0.00
 399.000   12.34    6.94    1.06   0.000   0.140   0.000    0.00
 400.000   13.23    5.22   -0.33   0.000   0.140   0.000    0.00
 401.000   12.85    6.14   -0.12   0.000   0.140   0.000    0.00
 402.000   12.35    2.05   -0.40   0.000   0.140   0.000    0.00
 403.000   12.74    3.99   -0.55   0.000   0.140   0.000    0.00
 404.000   12.57    1.11    0.12   0.000   0.140   0.000    0.00
 405.000   13.09    0.95    0.15   0.000   0.140   0.000    0.00
 406.000   13.15   -3.03   -0.11   0.000   0.140   0.000    0.00
 407.000   12.69   -3.49   -0.50   0.000   0.140   0.000    0.00
 408.000   12.98   -4.78    0.18   0.000   0.140   0.000    0.00
 409.000   11.99   -2.22   -0.18   0.000   0.140   0.000    0.00
 410.000   12.21   -1.17   -0.33   0.000   0.140   0.000    0.00
 411.000   11.93   -0.17   -0.79   0.000   0.140   0.000    0.00
 412.000   11.61    2.58   -0.57   0.000   0.140   0.000    0.00
 413.000   11.89    1.94   -0.61   0.000   0.140   0.000    0.00
 414.000   11.58   -4.41   -0.42   0.000   0.140   0.000    0.00
 415.000   12.12   -2.71    0.14   0.000   0.140   0.000    0.00
 416.000   11.88   -5.66    0.21   0.000   0.140   0.000    0.00
 417.000   12.21   -2.10    0.09   0.000   0.140   0.000    0.00
 418.000   11.96   -0.55    0.00   0.000   0.140   0.000    0.00
 419.000   12.68    0.94   -0.11   0.000   0.140   0.000    0.00
 420.000   11.67    1.63   -1.08   0.000   0.140   0.000    0.00
 421.000   11.61   -1.02   -0.92   0.000   0.140   0.000    0.00
 422.000   10.93   -3.28   -0.43   0.000   0.140   0.000    0.00
 423.000   11.31   -3.16   -0.08   0.000   0.140   0.000    0.00
 424.000   11.11   -3.14   -0.42   0.000   0.140   0.000    0.00
 425.000   11.47   -4.55   -0.82   0.000   0.140   0.000    0.00
 426.000   11.24   -0.95   -0.54   0.000   0.140   0.000    0.00
 427.000   11.10   -0.51   -0.53   0.000   0.140   0.000    0.00
 428.000   12.41   -4.87   -0.18   0.000   0.140   0.000    0.00
 429.000   13.32   -6.19    0.39   0.000   0.140   0.000    0.00
 430.000   12.18   -5.14   -0.19   0.000   0.140   0.000    0.00
 431.000   12.19   -3.08   -0.86   0.000   0.140   0.000    0.00
 432.000   12.76   -5.61   -0.06   0.000   0.140   0.000    0.00
 433.000   12.10   -4.44    0.14   0.000   0.140   0.000    0.00
 434.000   12.15   -0.76    0.34   0.000   0.140   0.000    0.00
 435.000   12.18   -3.10    0.37   0.000   0.140   0.000    0.00
 436.000   11.45   -4.34    0.66   0.000   0.140   0.000    0.00
 437.000   10.76   -5.51   -0.10   0.000   0.140   0.000    0.00
 438.000   12.30   -6.19    0.19   0.000   0.140   0.000    0.00
 439.000   11.88   -9.71   -0.66   0.000   0.140   0.000    0.00
 440.000   12.06   -5.23    0.11   0.000   0.140   0.000    0.00
 441.000   12.01   -6.40   -0.35   0.000   0.140   0.000    0.00
 442.000   11.81   -5.92    0.08   0.000   0.140   0.000    0.00
 443.000   11.96   -0.05    0.50   0.000   0.140   0.000    0.00
 444.000   13.43   -3.43   -0.07   0.000   0.140   0.000    0.00
 445.000   12.90   -1.95    0.34   0.000   0.140   0.000    0.00
 446.000   13.18   -1.37   -0.07   0.000   0.140   0.000    0.00
 447.000   13.14   -6.19    0.17   0.000   0.140   0.000    0.00