! This hub-height wind-speed file was generated by TurbSim (v1.06.00, 21-Sep-2012) on 06-Apr-2018 at 10:30:42.
!
! The requested statistics for this data were:
!    Mean Total Wind Speed =   15.001 m/s
!    Turbulence Intensity  =   10.000%
!
!   Time  HorSpd  WndDir  VerSpd  HorShr  VerShr  LnVShr  GstSpd
!  (sec)   (m/s)   (deg)   (m/s)     (-)     (-)     (-)   (m/s)
   0.000   16.77    1.67   -0.99   0.000   0.140   0.000    0.00
   1.000   17.15   -1.00   -1.23   0.000   0.140   0.000    0.00
   2.000   16.87   -3.76   -1.13   0.000   0.140   0.000    0.00
   3.000   16.35   -1.81   -1.35   0.000   0.140   0.000    0.00
   4.000   16.60   -2.23   -1.78   0.000   0.140   0.000    0.00
   5.000   16.55   -1.96   -0.80   0.000   0.140   0.000    0.00
   6.000   17.11   -0.11   -0.91   0.000   0.140   0.000    0.00
   7.000   16.99   -0.77   -0.76   0.000   0.140   0.000    0.00
   8.000   17.66   -0.73   -0.77   0.000   0.140   0.000    0.00
   9.000   17.02   -0.89   -0.48   0.000   0.140   0.000    0.00
  10.000   15.92   -1.67   -1.02   0.000   0.140   0.000    0.00
  11.000   15.53   -1.13   -0.49   0.000   0.140   0.000    0.00
  12.000   16.21    0.40   -0.41   0.000   0.140   0.000    0.00
  13.000   16.62    0.59   -0.30   0.000   0.140   0.000    0.00
  14.000   17.57   -0.91    0.43   0.000   0.140   0.000    0.00
  15.000   17.36   -3.93    0.11   0.000   0.140   0.000    0.00
  16.000   16.20   -5.50    0.29   0.000   0.140   0.000    0.00
  17.000   15.42   -7.91    0.02   0.000   0.140   0.000    0.00
  18.000   14.89   -6.60   -0.45   0.000   0.140   0.000    0.00
  19.000   14.80   -7.92   -0.18   0.000   0.140   0.000    0.00
  20.000   15.30   -9.02    0.31   0.000   0.140   0.000    0.00
  21.000   13.59   -9.54   -0.06   0.000   0.140   0.000    0.00
  22.000   13.58   -7.82   -0.40   0.000   0.140   0.000    0.00
  23.000   14.30   -9.68    0.44   0.000   0.140   0.000    0.00
  24.000   13.17  -12.14    0.64   0.000   0.140   0.000    0.00
  25.000   12.99  -12.66    0.23   0.000   0.140   0.000    0.00
  26.000   14.30  -16.42    0.52   0.000   0.140   0.000    0.00
  27.000   13.75  -10.53    0.57   0.000   0.140   0.000    0.00
  28.000   14.02   -9.84    0.16   0.000   0.140   0.000    0.00
  29.000   13.55  -13.64   -0.34   0.000   0.140   0.000    0.00
  30.000   14.26  -10.90   -0.75   0.000   0.140   0.000    0.00
  31.000   14.17   -7.14   -1.07   0.000   0.140   0.000    0.00
  32.000   13.18   -2.65    0.28   0.000   0.140   0.000    0.00
  33.000   13.26   -1.51   -0.82   0.000   0.140   0.000    0.00
  34.000   13.62   -0.76   -0.86   0.000   0.140   0.000    0.00
  35.000   14.39   -3.57    0.30   0.000   0.140   0.000    0.00
  36.000   13.89   -3.28    0.18   0.000   0.140   0.000    0.00
  37.000   12.83   -3.49    1.07   0.000   0.140   0.000    0.00
  38.000   12.59   -3.85    0.11   0.000   0.140   0.000    0.00
  39.000   11.90   -1.68    0.02   0.000   0.140   0.000    0.00
  40.000   12.90    4.09    0.37   0.000   0.140   0.000    0.00
  41.000   12.56   -0.51    0.29   0.000   0.140   0.000    0.00
  42.000   13.13    6.52   -0.25   0.000   0.140   0.000    0.00
  43.000   13.67    5.64    0.34   0.000   0.140   0.000    0.00
  44.000   14.45   -0.96    1.24   0.000   0.140   0.000    0.00
  45.000   14.51   -0.87    1.61   0.000   0.140   0.000    0.00
  46.000   14.75    2.08    0.27   0.000   0.140   0.000    0.00
  47.000   15.51    4.60    0.39   0.000   0.140   0.000    0.00
  48.000   15.28    1.06   -0.45   0.000   0.140   0.000    0.00
  49.000   15.64   -0.17    0.52   0.000   0.140   0.000    0.00
  50.000   15.83    3.72    0.20   0.000   0.140   0.000    0.00
  51.000   15.83    7.74    0.54   0.000   0.140   0.000    0.00
  52.000   15.63    4.39   -0.06   0.000   0.140   0.000    0.00
  53.000   14.69    1.73   -0.63   0.000   0.140   0.000    0.00
  54.000   15.32   -1.88   -0.72   0.000   0.140   0.000    0.00
  55.000   15.29    4.36   -0.58   0.000   0.140   0.000    0.00
  56.000   15.07    3.35   -0.27   0.000   0.140   0.000    0.00
  57.000   14.57    6.29    0.39   0.000   0.140   0.000    0.00
  58.000   15.05   -0.65    0.55   0.000   0.140   0.000    0.00
  59.000   15.70    2.11    1.13   0.000   0.140   0.000    0.00
  60.000   15.24    2.50    0.81   0.000   0.140   0.000    0.00
  61.000   14.46    1.83    0.52   0.000   0.140   0.000    0.00
  62.000   14.02   -0.04    0.60   0.000   0.140   0.000    0.00
  63.000   13.22   -0.32   -0.27   0.000   0.140   0.000    0.00
  64.000   13.40    0.05   -0.62   0.000   0.140   0.000    0.00
  65.000   12.97   -2.50    0.23   0.000   0.140   0.000    0.00
  66.000   13.59   -0.24    0.15   0.000   0.140   0.000    0.00
  67.000   14.30   -0.46    0.35   0.000   0.140   0.000    0.00
  68.000   13.70    1.22   -0.19   0.000   0.140   0.000    0.00
  69.000   13.70   -0.88   -0.60   0.000   0.140   0.000    0.00
  70.000   13.87    2.49    0.40   0.000   0.140   0.000    0.00
  71.000   13.69    2.41    0.15   0.000   0.140   0.000    0.00
  72.000   13.81    8.50    0.23   0.000   0.140   0.000    0.00
  73.000   14.09    8.75    1.14   0.000   0.140   0.000    0.00
  74.000   13.34    5.72    1.15   0.000   0.140   0.000    0.00
  75.000   13.97    9.83   -0.15   0.000   0.140   0.000    0.00
  76.000   13.56   10.42   -0.14   0.000   0.140   0.000    0.00
  77.000   13.29    5.55   -0.46   0.000   0.140   0.000    0.00
  78.000   13.06    7.38    0.10   0.000   0.140   0.000    0.00
  79.000   13.20    4.21   -1.67   0.000   0.140   0.000    0.00
  80.000   13.55   -1.03   -0.44   0.000   0.140   0.000    0.00
  81.000   14.43    1.52   -0.49   0.000   0.140   0.000    0.00
  82.000   14.91   -0.18   -0.94   0.000   0.140   0.000    0.00
  83.000   14.29   -4.98   -0.45   0.000   0.140   0.000    0.00
  84.000   15.08   -7.00   -0.90   0.000   0.140   0.000    0.00
  85.000   14.65   -3.22   -0.85   0.000   0.140   0.000    0.00
  86.000   15.03   -0.41   -0.33   0.000   0.140   0.000    0.00
  87.000   15.45   -0.19   -0.91   0.000   0.140   0.000    0.00
  88.000   16.65    1.78   -0.16   0.000   0.140   0.000    0.00
  89.000   17.17    2.27   -0.82   0.000   0.140   0.000    0.00
  90.000   16.03    2.23   -0.64   0.000   0.140   0.000    0.00
  91.000   16.51    3.04   -0.18   0.000   0.140   0.000    0.00
  92.000   16.64    6.31   -0.19   0.000   0.140   0.000    0.00
  93.000   16.61    9.83   -0.56   0.000   0.140   0.000    0.00
  94.000   16.37    9.08    0.47   0.000   0.140   0.000    0.00
  95.000   17.12    6.59    0.52   0.000   0.140   0.000    0.00
  96.000   17.17    7.89    0.60   0.000   0.140   0.000    0.00
  97.000   17.12    3.05    0.62   0.000   0.140   0.000    0.00
  98.000   17.84    2.37    0.55   0.000   0.140   0.000    0.00
  99.000   18.59    5.76    0.41   0.000   0.140   0.000    0.00
 100.000   18.22    4.05    0.17   0.000   0.140   0.000    0.00
 101.000   18.31    1.17    0.20   0.000   0.140   0.000    0.00
 102.000   17.63    3.89    0.59   0.000   0.140   0.000    0.00
 103.000   17.96    3.43    0.68   0.000   0.140   0.000    0.00
 104.000   17.52    4.97    0.63   0.000   0.140   0.000    0.00
 105.000   16.61    5.02    0.36   0.000   0.140   0.000    0.00
 106.000   16.64    4.86    0.30   0.000   0.140   0.000    0.00
 107.000   15.46    5.09   -0.17   0.000   0.140   0.000    0.00
 108.000   14.84    0.82    0.40   0.000   0.140   0.000    0.00
 109.000   14.27   -2.76    0.41   0.000   0.140   0.000    0.00
 110.000   14.74   -0.83   -0.38   0.000   0.140   0.000    0.00
 111.000   16.41    0.06   -0.52   0.000   0.140   0.000    0.00
 112.000   17.59    0.86   -0.87   0.000   0.140   0.000    0.00
 113.000   17.81    4.12   -0.47   0.000   0.140   0.000    0.00
 114.000   17.23    4.62   -0.34   0.000   0.140   0.000    0.00
 115.000   17.90    0.92   -0.66   0.000   0.140   0.000    0.00
 116.000   17.27    1.52   -0.16   0.000   0.140   0.000    0.00
 117.000   16.86    0.50   -0.18   0.000   0.140   0.000    0.00
 118.000   16.34    2.64   -0.55   0.000   0.140   0.000    0.00
 119.000   15.77    7.27   -0.39   0.000   0.140   0.000    0.00
 120.000   15.78    5.82    0.19   0.000   0.140   0.000    0.00
 121.000   16.30    2.62   -0.17   0.000   0.140   0.000    0.00
 122.000   15.44    2.25   -0.73   0.000   0.140   0.000    0.00
 123.000   14.97    2.75   -0.75   0.000   0.140   0.000    0.00
 124.000   15.53    5.09    0.33   0.000   0.140   0.000    0.00
 125.000   14.94    3.35    0.44   0.000   0.140   0.000    0.00
 126.000   14.69   -0.10    0.31   0.000   0.140   0.000    0.00
 127.000   14.71    2.62    0.19   0.000   0.140   0.000    0.00
 128.000   13.92    5.08   -0.16   0.000   0.140   0.000    0.00
 129.000   14.21    2.32   -0.48   0.000   0.140   0.000    0.00
 130.000   15.40    2.21   -0.15   0.000   0.140   0.000    0.00
 131.000   15.23    6.77    0.35   0.000   0.140   0.000    0.00
 132.000   14.58    3.68   -0.62   0.000   0.140   0.000    0.00
 133.000   15.17    2.36   -0.61   0.000   0.140   0.000    0.00
 134.000   15.40    3.94   -0.18   0.000   0.140   0.000    0.00
 135.000   14.94    1.22   -0.48   0.000   0.140   0.000    0.00
 136.000   14.06    3.43   -1.45   0.000   0.140   0.000    0.00
 137.000   14.27   -0.88   -0.24   0.000   0.140   0.000    0.00
 138.000   15.35   -0.88    0.39   0.000   0.140   0.000    0.00
 139.000   15.10    1.45    0.04   0.000   0.140   0.000    0.00
 140.000   14.67    3.20   -1.44   0.000   0.140   0.000    0.00
 141.000   15.89    5.42    0.30   0.000   0.140   0.000    0.00
 142.000   16.12    2.23   -0.02   0.000   0.140   0.000    0.00
 143.000   16.11   -1.66    1.29   0.000   0.140   0.000    0.00
 144.000   15.90    0.02    0.80   0.000   0.140   0.000    0.00
 145.000   15.28    1.13   -0.05   0.000   0.140   0.000    0.00
 146.000   15.75    3.39   -0.12   0.000   0.140   0.000    0.00
 147.000   15.42    2.98   -1.15   0.000   0.140   0.000    0.00
 148.000   14.94    5.88   -1.28   0.000   0.140   0.000    0.00
 149.000   15.51    3.90   -1.00   0.000   0.140   0.000    0.00
 150.000   15.48    2.58   -0.40   0.000   0.140   0.000    0.00
 151.000   16.01    3.31   -0.67   0.000   0.140   0.000    0.00
 152.000   15.88    1.30   -0.60   0.000   0.140   0.000    0.00
 153.000   16.04    3.20    0.00   0.000   0.140   0.000    0.00
 154.000   16.25    5.14    0.78   0.000   0.140   0.000    0.00
 155.000   16.52    6.71    0.70   0.000   0.140   0.000    0.00
 156.000   15.93    2.90   -0.62   0.000   0.140   0.000    0.00
 157.000   15.62    5.01   -0.15   0.000   0.140   0.000    0.00
 158.000   16.24    4.71    0.44   0.000   0.140   0.000    0.00
 159.000   16.67    9.13    0.26   0.000   0.140   0.000    0.00
 160.000   16.24    5.38   -0.76   0.000   0.140   0.000    0.00
 161.000   17.26    3.21   -0.11   0.000   0.140   0.000    0.00
 162.000   17.08    1.26   -0.53   0.000   0.140   0.000    0.00
 163.000   17.35    1.38   -0.37   0.000   0.140   0.000    0.00
 164.000   16.24    6.72    0.57   0.000   0.140   0.000    0.00
 165.000   15.27    5.97    0.57   0.000   0.140   0.000    0.00
 166.000   15.88    5.06    0.45   0.000   0.140   0.000    0.00
 167.000   15.37    4.37   -0.20   0.000   0.140   0.000    0.00
 168.000   14.34   -1.32   -0.02   0.000   0.140   0.000    0.00
 169.000   15.45    1.53   -0.31   0.000   0.140   0.000    0.00
 170.000   15.36    3.84    0.52   0.000   0.140   0.000    0.00
 171.000   15.80   -2.36   -0.08   0.000   0.140   0.000    0.00
 172.000   15.33   -6.71   -0.02   0.000   0.140   0.000    0.00
 173.000   15.11   -6.07    0.33   0.000   0.140   0.000    0.00
 174.000   15.63   -4.87   -0.69   0.000   0.140   0.000    0.00
 175.000   15.43   -7.29   -0.69   0.000   0.140   0.000    0.00
 176.000   15.91   -2.65    0.01   0.000   0.140   0.000    0.00
 177.000   14.96   -1.04   -0.63   0.000   0.140   0.000    0.00
 178.000   14.93   -1.58   -0.87   0.000   0.140   0.000    0.00
 179.000   15.48   -2.68   -0.92   0.000   0.140   0.000    0.00
 180.000   14.39    0.63   -0.57   0.000   0.140   0.000    0.00
 181.000   14.99   -0.50    0.69   0.000   0.140   0.000    0.00
 182.000   14.92   -1.72    0.34   0.000   0.140   0.000    0.00
 183.000   15.00    0.56    0.30   0.000   0.140   0.000    0.00
 184.000   14.56   -3.44   -0.42   0.000   0.140   0.000    0.00
 185.000   14.31   -6.15    0.14   0.000   0.140   0.000    0.00
 186.000   15.67   -2.31    0.09   0.000   0.140   0.000    0.00
 187.000   14.77   -2.99    0.04   0.000   0.140   0.000    0.00
 188.000   13.42   -1.01    0.58   0.000   0.140   0.000    0.00
 189.000   13.20   -1.34    1.14   0.000   0.140   0.000    0.00
 190.000   13.56   -2.80    0.96   0.000   0.140   0.000    0.00
 191.000   13.48   -4.64    0.47   0.000   0.140   0.000    0.00
 192.000   15.82   -1.34    0.42   0.000   0.140   0.000    0.00
 193.000   16.20    0.11    2.23   0.000   0.140   0.000    0.00
 194.000   16.21   -1.09    1.19   0.000   0.140   0.000    0.00
 195.000   15.68   -1.69    1.00   0.000   0.140   0.000    0.00
 196.000   16.65   -0.90    0.68   0.000   0.140   0.000    0.00
 197.000   17.19   -2.54   -0.56   0.000   0.140   0.000    0.00
 198.000   16.75   -4.10   -0.99   0.000   0.140   0.000    0.00
 199.000   15.23   -3.03   -1.30   0.000   0.140   0.000    0.00
 200.000   15.62   -6.67   -0.79   0.000   0.140   0.000    0.00
 201.000   15.60   -7.76    0.27   0.000   0.140   0.000    0.00
 202.000   15.42  -12.42    0.42   0.000   0.140   0.000    0.00
 203.000   15.64   -8.21    0.46   0.000   0.140   0.000    0.00
 204.000   15.06   -7.73    0.65   0.000   0.140   0.000    0.00
 205.000   14.66   -9.77    0.45   0.000   0.140   0.000    0.00
 206.000   15.20   -4.18   -0.15   0.000   0.140   0.000    0.00
 207.000   14.77   -2.44    0.83   0.000   0.140   0.000    0.00
 208.000   16.01    1.81    0.51   0.000   0.140   0.000    0.00
 209.000   16.12    1.22    0.71   0.000   0.140   0.000    0.00
 210.000   16.32    0.29    0.26   0.000   0.140   0.000    0.00
 211.000   16.16    0.82   -0.01   0.000   0.140   0.000    0.00
 212.000   15.43   -3.10    0.36   0.000   0.140   0.000    0.00
 213.000   15.90    0.06    0.56   0.000   0.140   0.000    0.00
 214.000   14.38   -1.12    0.36   0.000   0.140   0.000    0.00
 215.000   13.39   -5.98   -0.33   0.000   0.140   0.000    0.00
 216.000   13.93   -2.21   -0.14   0.000   0.140   0.000    0.00
 217.000   14.22   -1.88    0.33   0.000   0.140   0.000    0.00
 218.000   15.80   -2.78    0.84   0.000   0.140   0.000    0.00
 219.000   16.30   -6.22    0.33   0.000   0.140   0.000    0.00
 220.000   16.43   -4.07   -0.05   0.000   0.140   0.000    0.00
 221.000   15.55   -4.83   -0.34   0.000   0.140   0.000    0.00
 222.000   15.28   -1.02    0.23   0.000   0.140   0.000    0.00
 223.000   14.90   -0.21    0.35   0.000   0.140   0.000    0.00
 224.000   14.50    2.29   -0.07   0.000   0.140   0.000    0.00
 225.000   14.64    2.05   -0.89   0.000   0.140   0.000    0.00
 226.000   14.79   -1.17   -0.14   0.000   0.140   0.000    0.00
 227.000   14.72   -3.33   -0.82   0.000   0.140   0.000    0.00
 228.000   15.12    0.66   -0.60   0.000   0.140   0.000    0.00
 229.000   15.11    1.17    0.51   0.000   0.140   0.000    0.00
 230.000   14.98    2.68   -0.43   0.000   0.140   0.000    0.00
 231.000   15.51    3.74   -0.34   0.000   0.140   0.000    0.00
 232.000   16.20    2.02   -0.10   0.000   0.140   0.000    0.00
 233.000   17.07   -0.34    0.59   0.000   0.140   0.000    0.00
 234.000   17.02    0.00    0.04   0.000   0.140   0.000    0.00
 235.000   16.25    2.08    0.44   0.000   0.140   0.000    0.00
 236.000   16.05    2.58    0.58   0.000   0.140   0.000    0.00
 237.000   15.97    3.77    0.33   0.000   0.140   0.000    0.00
 238.000   15.53    4.04    0.10   0.000   0.140   0.000    0.00
 239.000   15.69    8.88   -0.14   0.000   0.140   0.000    0.00
 240.000   15.48    5.94   -0.27   0.000   0.140   0.000    0.00
 241.000   14.07    4.02    0.07   0.000   0.140   0.000    0.00
 242.000   14.05    1.10   -0.19   0.000   0.140   0.000    0.00
 243.000   14.94    2.39   -0.87   0.000   0.140   0.000    0.00
 244.000   14.43    1.75   -0.39   0.000   0.140   0.000    0.00
 245.000   14.55    3.74   -0.05   0.000   0.140   0.000    0.00
 246.000   15.30    3.75   -0.56   0.000   0.140   0.000    0.00
 247.000   14.45    4.11   -0.50   0.000   0.140   0.000    0.00
 248.000   14.40    3.22   -0.15   0.000   0.140   0.000    0.00
 249.000   14.68   -0.35   -0.52   0.000   0.140   0.000    0.00
 250.000   14.06    2.62   -0.19   0.000   0.140   0.000    0.00
 251.000   14.80    2.09   -0.80   0.000   0.140   0.000    0.00
 252.000   14.68    1.89   -0.53   0.000   0.140   0.000    0.00
 253.000   14.40   -1.08   -0.27   0.000   0.140   0.000    0.00
 254.000   13.76   -0.81   -0.05   0.000   0.140   0.000    0.00
 255.000   14.60   -1.02    0.31   0.000   0.140   0.000    0.00
 256.000   14.68   -0.22    0.39   0.000   0.140   0.000    0.00
 257.000   13.96    3.90    0.44   0.000   0.140   0.000    0.00
 258.000   13.10    1.72    1.05   0.000   0.140   0.000    0.00
 259.000   13.30    1.32    0.45   0.000   0.140   0.000    0.00
 260.000   15.44    0.89   -0.02   0.000   0.140   0.000    0.00
 261.000   16.46    4.11    0.43   0.000   0.140   0.000    0.00
 262.000   15.07    2.82   -0.51   0.000   0.140   0.000    0.00
 263.000   15.10    4.84    0.13   0.000   0.140   0.000    0.00
 264.000   15.38    8.28    0.53   0.000   0.140   0.000    0.00
 265.000   14.61    6.77   -0.01   0.000   0.140   0.000    0.00
 266.000   13.94    3.89   -0.43   0.000   0.140   0.000    0.00
 267.000   14.75    2.53    0.28   0.000   0.140   0.000    0.00
 268.000   14.72    1.25   -0.27   0.000   0.140   0.000    0.00
 269.000   14.70   -0.59    0.08   0.000   0.140   0.000    0.00
 270.000   14.89   -0.76    0.11   0.000   0.140   0.000    0.00
 271.000   15.52    1.04   -0.14   0.000   0.140   0.000    0.00
 272.000   15.14    1.18   -0.13   0.000   0.140   0.000    0.00
 273.000   15.68    1.39   -0.49   0.000   0.140   0.000    0.00
 274.000   16.20   -1.35    0.35   0.000   0.140   0.000    0.00
 275.000   15.39   -2.40    0.24   0.000   0.140   0.000    0.00
 276.000   14.87    1.60    0.55   0.000   0.140   0.000    0.00
 277.000   14.22    3.68    0.74   0.000   0.140   0.000    0.00
 278.000   14.89    4.74    0.17   0.000   0.140   0.000    0.00
 279.000   14.71    5.04   -0.07   0.000   0.140   0.000    0.00
 280.000   14.47    3.45   -0.07   0.000   0.140   0.000    0.00
 281.000   15.37   -1.49   -0.31   0.000   0.140   0.000    0.00
 282.000   15.39   -7.60    0.22   0.000   0.140   0.000    0.00
 283.000   14.35   -7.24    0.17   0.000   0.140   0.000    0.00
 284.000   14.01   -5.67    0.82   0.000   0.140   0.000    0.00
 285.000   13.74   -2.74   -0.63   0.000   0.140   0.000    0.00
 286.000   14.49    1.88   -0.73   0.000   0.140   0.000    0.00
 287.000   14.62    1.42   -0.46   0.000   0.140   0.000    0.00
 288.000   14.04   -1.39   -0.48   0.000   0.140   0.000    0.00
 289.000   13.56    3.45   -0.60   0.000   0.140   0.000    0.00
 290.000   12.10   -0.42   -0.43   0.000   0.140   0.000    0.00
 291.000   11.95    2.65    0.03   0.000   0.140   0.000    0.00
 292.000   12.17    1.48    0.03   0.000   0.140   0.000    0.00
 293.000   12.71   -1.91   -0.70   0.000   0.140   0.000    0.00
 294.000   12.33    4.48    0.12   0.000   0.140   0.000    0.00
 295.000   11.42    4.38    0.76   0.000   0.140   0.000    0.00
 296.000   12.12    1.23    0.48   0.000   0.140   0.000    0.00
 297.000   13.49   -0.42    0.60   0.000   0.140   0.000    0.00
 298.000   13.66   -0.98    1.12   0.000   0.140   0.000    0.00
 299.000   14.25   -6.91    0.64   0.000   0.140   0.000    0.00
 300.000   14.34   -4.12    0.65   0.000   0.140   0.000    0.00
 301.000   14.24   -2.45    0.51   0.000   0.140   0.000    0.00
 302.000   13.95   -4.24   -0.27   0.000   0.140   0.000    0.00
 303.000   13.26   -0.47   -0.24   0.000   0.140   0.000    0.00
 304.000   13.57    1.63   -0.01   0.000   0.140   0.000    0.00
 305.000   13.17   -0.79    0.34   0.000   0.140   0.000    0.00
 306.000   13.02   -3.04    0.34   0.000   0.140   0.000    0.00
 307.000   14.46    0.51    0.28   0.000   0.140   0.000    0.00
 308.000   14.14    6.51    0.12   0.000   0.140   0.000    0.00
 309.000   14.47    3.74   -0.32   0.000   0.140   0.000    0.00
 310.000   14.34    2.60   -0.82   0.000   0.140   0.000    0.00
 311.000   14.27   -0.42   -1.18   0.000   0.140   0.000    0.00
 312.000   15.05   -3.72   -0.29   0.000   0.140   0.000    0.00
 313.000   14.89   -1.54    0.26   0.000   0.140   0.000    0.00
 314.000   15.41    1.07    0.56   0.000   0.140   0.000    0.00
 315.000   15.47   -2.62    0.32   0.000   0.140   0.000    0.00
 316.000   15.05    2.60   -0.57   0.000   0.140   0.000    0.00
 317.000   15.15    2.05   -0.67   0.000   0.140   0.000    0.00
 318.000   15.10   -3.04   -0.11   0.000   0.140   0.000    0.00
 319.000   14.20   -2.48   -0.06   0.000   0.140   0.000    0.00
 320.000   13.80   -3.34    0.03   0.000   0.140   0.000    0.00
 321.000   14.42    1.08   -0.12   0.000   0.140   0.000    0.00
 322.000   14.55   -0.45   -0.69   0.000   0.140   0.000    0.00
 323.000   14.61   -4.05   -0.45   0.000   0.140   0.000    0.00
 324.000   14.39   -1.16    0.05   0.000   0.140   0.000    0.00
 325.000   13.83   -0.97   -0.42   0.000   0.140   0.000    0.00
 326.000   14.85   -1.75    0.23   0.000   0.140   0.000    0.00
 327.000   16.31    1.21    0.00   0.000   0.140   0.000    0.00
 328.000   15.50   -1.26    0.57   0.000   0.140   0.000    0.00
 329.000   15.61    3.00    1.42   0.000   0.140   0.000    0.00
 330.000   15.43    3.59    1.46   0.000   0.140   0.000    0.00
 331.000   15.27    2.44    1.37   0.000   0.140   0.000    0.00
 332.000   15.74    1.14    0.98   0.000   0.140   0.000    0.00
 333.000   15.57    0.22    1.05   0.000   0.140   0.000    0.00
 334.000   15.42    1.87   -0.57   0.000   0.140   0.000    0.00
 335.000   15.84    4.78    0.92   0.000   0.140   0.000    0.00
 336.000   14.40    2.08    0.47   0.000   0.140   0.000    0.00
 337.000   13.43    4.38    0.62   0.000   0.140   0.000    0.00
 338.000   12.90    9.90    1.38   0.000   0.140   0.000    0.00
 339.000   12.80   10.04    1.48   0.000   0.140   0.000    0.00
 340.000   13.28    3.75    1.46   0.000   0.140   0.000    0.00
 341.000   12.26    2.43    0.82   0.000   0.140   0.000    0.00
 342.000   13.04   -0.34    0.43   0.000   0.140   0.000    0.00
 343.000   13.12   -4.89    0.41   0.000   0.140   0.000    0.00
 344.000   12.86   -6.96    0.01   0.000   0.140   0.000    0.00
 345.000   12.96   -5.87    0.52   0.000   0.140   0.000    0.00
 346.000   14.79    2.64    1.12   0.000   0.140   0.000    0.00
 347.000   15.37    4.86    0.04   0.000   0.140   0.000    0.00
 348.000   15.61    1.79   -1.21   0.000   0.140   0.000    0.00
 349.000   14.62   -2.31   -0.47   0.000   0.140   0.000    0.00
 350.000   14.04    0.55   -0.09   0.000   0.140   0.000    0.00
 351.000   14.97    6.60   -0.45   0.000   0.140   0.000    0.00
 352.000   14.41    4.47   -0.09   0.000   0.140   0.000    0.00
 353.000   14.36    4.41   -0.28   0.000   0.140   0.000    0.00
 354.000   14.61    2.09    0.22   0.000   0.140   0.000    0.00
 355.000   14.92    4.88   -0.19   0.000   0.140   0.000    0.00
 356.000   15.83    3.07    1.30   0.000   0.140   0.000    0.00
 357.000   15.42    0.06    0.18   0.000   0.140   0.000    0.00
 358.000   14.90    3.10   -0.25   0.000   0.140   0.000    0.00
 359.000   13.90   -4.41    0.64   0.000   0.140   0.000    0.00
 360.000   14.41   -1.28    0.55   0.000   0.140   0.000    0.00
 361.000   15.28   -2.78    0.63   0.000   0.140   0.000    0.00
 362.000   15.94   -2.22    0.82   0.000   0.140   0.000    0.00
 363.000   16.24   -1.40   -0.56   0.000   0.140   0.000    0.00
 364.000   15.55   -3.73   -1.04   0.000   0.140   0.000    0.00
 365.000   16.44   -2.00   -0.38   0.000   0.140   0.000    0.00
 366.000   14.67    3.70   -0.41   0.000   0.140   0.000    0.00
 367.000   14.82    8.10   -0.06   0.000   0.140   0.000    0.00
 368.000   14.92    3.73    0.01   0.000   0.140   0.000    0.00
 369.000   15.87   -1.47    0.36   0.000   0.140   0.000    0.00
 370.000   15.16    3.90    0.55   0.000   0.140   0.000    0.00
 371.000   15.55   -0.21    1.29   0.000   0.140   0.000    0.00
 372.000   15.60    0.89    1.91   0.000   0.140   0.000    0.00
 373.000   16.65    1.63    1.84   0.000   0.140   0.000    0.00
 374.000   16.58   -0.37    1.81   0.000   0.140   0.000    0.00
 375.000   16.48    3.00    0.58   0.000   0.140   0.000    0.00
 376.000   17.40    2.35    0.30   0.000   0.140   0.000    0.00
 377.000   16.93    4.47    0.34   0.000   0.140   0.000    0.00
 378.000   16.13    4.91    0.24   0.000   0.140   0.000    0.00
 379.000   16.30    5.53    0.31   0.000   0.140   0.000    0.00
 380.000   15.89    0.57    0.66   0.000   0.140   0.000    0.00
 381.000   15.97   -1.81    0.13   0.000   0.140   0.000    0.00
 382.000   16.04   -0.88   -0.18   0.000   0.140   0.000    0.00
 383.000   17.33   -0.82    0.96   0.000   0.140   0.000    0.00
 384.000   18.50   -0.07    0.28   0.000   0.140   0.000    0.00
 385.000   17.60    2.14   -0.16   0.000   0.140   0.000    0.00
 386.000   16.59    1.78    0.04   0.000   0.140   0.000    0.00
 387.000   18.08    4.23    0.80   0.000   0.140   0.000    0.00
 388.000   17.57    4.12    1.54   0.000   0.140   0.000    0.00
 389.000   16.79    4.48    0.23   0.000   0.140   0.000    0.00
 390.000   17.95    5.37    0.06   0.000   0.140   0.000    0.00
 391.000   17.69    6.25   -0.28   0.000   0.140   0.000    0.00
 392.000   16.56    6.19    0.50   0.000   0.140   0.000    0.00
 393.000   16.48    6.84   -0.23   0.000   0.140   0.000    0.00
 394.000   15.98    1.90   -0.56   0.000   0.140   0.000    0.00
 395.000   16.09    0.77    0.38   0.000   0.140   0.000    0.00
 396.000   16.02   -0.11    1.33   0.000   0.140   0.000    0.00
 397.000   16.74   -2.55    0.95   0.000   0.140   0.000    0.00
 398.000   15.74   -0.02    1.19   0.000   0.140   0.000    0.00
 399.000   15.24    7.17    1.31   0.000   0.140   0.000    0.00
 400.000   16.48    5.27   -0.46   0.000   0.140   0.000    0.00
 401.000   15.93    6.31   -0.15   0.000   0.140   0.000    0.00
 402.000   15.25    1.96   -0.51   0.000   0.140   0.000    0.00
 403.000   15.69    4.13   -0.70   0.000   0.140   0.000    0.00
 404.000   15.44    1.08    0.17   0.000   0.140   0.000    0.00
 405.000   16.13    0.99    0.20   0.000   0.140   0.000    0.00
 406.000   16.20   -3.25   -0.12   0.000   0.140   0.000    0.00
 407.000   15.67   -3.67   -0.62   0.000   0.140   0.000    0.00
 408.000   16.13   -5.01    0.27   0.000   0.140   0.000    0.00
 409.000   14.78   -2.27   -0.20   0.000   0.140   0.000    0.00
 410.000   15.15   -1.15   -0.38   0.000   0.140   0.000    0.00
 411.000   14.89   -0.08   -0.97   0.000   0.140   0.000    0.00
 412.000   14.55    2.84   -0.67   0.000   0.140   0.000    0.00
 413.000   14.88    2.20   -0.73   0.000   0.140   0.000    0.00
 414.000   14.37   -4.55   -0.50   0.000   0.140   0.000    0.00
 415.000   15.11   -2.67    0.21   0.000   0.140   0.000    0.00
 416.000   14.84   -5.80    0.29   0.000   0.140   0.000    0.00
 417.000   15.35   -2.00    0.14   0.000   0.140   0.000    0.00
 418.000   15.04   -0.38    0.03   0.000   0.140   0.000    0.00
 419.000   16.02    1.18   -0.09   0.000   0.140   0.000    0.00
 420.000   14.72    1.93   -1.33   0.000   0.140   0.000    0.00
 421.000   14.65   -0.83   -1.11   0.000   0.140   0.000    0.00
 422.000   13.70   -3.17   -0.49   0.000   0.140   0.000    0.00
 423.000   14.20   -3.01   -0.04   0.000   0.140   0.000    0.00
 424.000   13.98   -2.94   -0.48   0.000   0.140   0.000    0.00
 425.000   14.40   -4.44   -0.99   0.000   0.140   0.000    0.00
 426.000   14.12   -0.60   -0.64   0.000   0.140   0.000    0.00
 427.000   13.86   -0.11   -0.63   0.000   0.140   0.000    0.00
 428.000   15.58   -4.73   -0.20   0.000   0.140   0.000    0.00
 429.000   16.76   -6.10    0.53   0.000   0.140   0.000    0.00
 430.000   15.20   -4.98   -0.21   0.000   0.140   0.000    0.00
 431.000   15.31   -2.76   -1.09   0.000   0.140   0.000    0.00
 432.000   16.04   -5.46   -0.06   0.000   0.140   0.000    0.00
 433.000   15.14   -4.22    0.18   0.000   0.140   0.000    0.00
 434.000   15.15   -0.31    0.43   0.000   0.140   0.000    0.00
 435.000   15.18   -2.80    0.45   0.000   0.140   0.000    0.00
 436.000   14.35   -4.03    0.84   0.000   0.140   0.000    0.00
 437.000   13.40   -5.24   -0.15   0.000   0.140   0.000    0.00
 438.000   15.28   -6.03    0.26   0.000   0.140   0.000    0.00
 439.000   14.68   -9.82   -0.85   0.000   0.140   0.000    0.00
 440.000   14.94   -5.00    0.15   0.000   0.140   0.000    0.00
 441.000   14.88   -6.29   -0.45   0.000   0.140   0.000    0.00
 442.000   14.66   -5.80    0.09   0.000   0.140   0.000    0.00
 443.000   14.82    0.46    0.64   0.000   0.140   0.000    0.00
 444.000   16.80   -3.23   -0.11   0.000   0.140   0.000    0.00
 445.000   16.08   -1.64    0.43   0.000   0.140   0.000    0.00
 446.000   16.45   -1.04   -0.11   0.000   0.140   0.000    0.00
 447.000   16.49   -6.13    0.21   0.000   0.140   0.000    0.00