! This hub-height wind-speed file was generated by TurbSim (v1.06.00, 21-Sep-2012) on 27-May-2018 at 14:52:13.
!
! The requested statistics for this data were:
!    Mean Total Wind Speed =   10.001 m/s
!    Turbulence Intensity  =   10.000%
!
!   Time  HorSpd  WndDir  VerSpd  HorShr  VerShr  LnVShr  GstSpd
!  (sec)   (m/s)   (deg)   (m/s)     (-)     (-)     (-)   (m/s)
   0.000   2.45    0.000   0.000   0.000   0.140   0.000    0.00
   1.000   2.55    0.000   0.000   0.000   0.140   0.000    0.00
   2.000   2.73    0.000   0.000   0.000   0.140   0.000    0.00
   3.000   2.76    0.000   0.000   0.000   0.140   0.000    0.00
   4.000   2.92    0.000   0.000   0.000   0.140   0.000    0.00
   5.000   2.64    0.000   0.000   0.000   0.140   0.000    0.00
   6.000   2.69    0.000   0.000   0.000   0.140   0.000    0.00
   7.000   2.63    0.000   0.000   0.000   0.140   0.000    0.00
   8.000   2.84    0.000   0.000   0.000   0.140   0.000    0.00
   9.000   2.65    0.000   0.000   0.000   0.140   0.000    0.00
  10.000   2.82    0.000   0.000   0.000   0.140   0.000    0.00
  11.000   2.93    0.000   0.000   0.000   0.140   0.000    0.00
  12.000   2.92    0.000   0.000   0.000   0.140   0.000    0.00
  13.000   3.23    0.000   0.000   0.000   0.140   0.000    0.00
  14.000   3.34    0.000   0.000   0.000   0.140   0.000    0.00
  15.000   3.27    0.000   0.000   0.000   0.140   0.000    0.00
  16.000   3.61    0.000   0.000   0.000   0.140   0.000    0.00
  17.000   3.28    0.000   0.000   0.000   0.140   0.000    0.00
  18.000   3.19    0.000   0.000   0.000   0.140   0.000    0.00
  19.000   3.10    0.000   0.000   0.000   0.140   0.000    0.00
  20.000   3.06    0.000   0.000   0.000   0.140   0.000    0.00
  21.000   3.08    0.000   0.000   0.000   0.140   0.000    0.00
  22.000   3.39    0.000   0.000   0.000   0.140   0.000    0.00
  23.000   3.16    0.000   0.000   0.000   0.140   0.000    0.00
  24.000   3.40    0.000   0.000   0.000   0.140   0.000    0.00
  25.000   3.49    0.000   0.000   0.000   0.140   0.000    0.00
  26.000   3.19    0.000   0.000   0.000   0.140   0.000    0.00
  27.000   2.91    0.000   0.000   0.000   0.140   0.000    0.00
  28.000   2.99    0.000   0.000   0.000   0.140   0.000    0.00
  29.000   3.16    0.000   0.000   0.000   0.140   0.000    0.00
  30.000   3.11    0.000   0.000   0.000   0.140   0.000    0.00
  31.000   3.17    0.000   0.000   0.000   0.140   0.000    0.00
  32.000   3.11    0.000   0.000   0.000   0.140   0.000    0.00
  33.000   3.34    0.000   0.000   0.000   0.140   0.000    0.00
  34.000   3.21    0.000   0.000   0.000   0.140   0.000    0.00
  35.000   3.52    0.000   0.000   0.000   0.140   0.000    0.00
  36.000   3.83    0.000   0.000   0.000   0.140   0.000    0.00
  37.000   4.04    0.000   0.000   0.000   0.140   0.000    0.00
  38.000   4.01    0.000   0.000   0.000   0.140   0.000    0.00
  39.000   3.68    0.000   0.000   0.000   0.140   0.000    0.00
  40.000   3.81    0.000   0.000   0.000   0.140   0.000    0.00
  41.000   3.95    0.000   0.000   0.000   0.140   0.000    0.00
  42.000   4.41    0.000   0.000   0.000   0.140   0.000    0.00
  43.000   4.43    0.000   0.000   0.000   0.140   0.000    0.00
  44.000   4.44    0.000   0.000   0.000   0.140   0.000    0.00
  45.000   4.89    0.000   0.000   0.000   0.140   0.000    0.00
  46.000   4.51    0.000   0.000   0.000   0.140   0.000    0.00
  47.000   4.74    0.000   0.000   0.000   0.140   0.000    0.00
  48.000   4.97    0.000   0.000   0.000   0.140   0.000    0.00
  49.000   5.07    0.000   0.000   0.000   0.140   0.000    0.00
  50.000   5.19    0.000   0.000   0.000   0.140   0.000    0.00
  51.000   5.39    0.000   0.000   0.000   0.140   0.000    0.00
  52.000   4.65    0.000   0.000   0.000   0.140   0.000    0.00
  53.000   4.57    0.000   0.000   0.000   0.140   0.000    0.00
  54.000   4.82    0.000   0.000   0.000   0.140   0.000    0.00
  55.000   5.43    0.000   0.000   0.000   0.140   0.000    0.00
  56.000   5.03    0.000   0.000   0.000   0.140   0.000    0.00
  57.000   4.37    0.000   0.000   0.000   0.140   0.000    0.00
  58.000   4.38    0.000   0.000   0.000   0.140   0.000    0.00
  59.000   4.43    0.000   0.000   0.000   0.140   0.000    0.00
  60.000   4.62    0.000   0.000   0.000   0.140   0.000    0.00
  61.000   5.59    0.000   0.000   0.000   0.140   0.000    0.00
  62.000   5.57    0.000   0.000   0.000   0.140   0.000    0.00
  63.000   5.62    0.000   0.000   0.000   0.140   0.000    0.00
  64.000   5.88    0.000   0.000   0.000   0.140   0.000    0.00
  65.000   6.90    0.000   0.000   0.000   0.140   0.000    0.00
  66.000   6.83    0.000   0.000   0.000   0.140   0.000    0.00
  67.000   6.02    0.000   0.000   0.000   0.140   0.000    0.00
  68.000   5.63    0.000   0.000   0.000   0.140   0.000    0.00
  69.000   5.93    0.000   0.000   0.000   0.140   0.000    0.00
  70.000   6.20    0.000   0.000   0.000   0.140   0.000    0.00
  71.000   6.40    0.000   0.000   0.000   0.140   0.000    0.00
  72.000   6.63    0.000   0.000   0.000   0.140   0.000    0.00
  73.000   6.56    0.000   0.000   0.000   0.140   0.000    0.00
  74.000   5.67    0.000   0.000   0.000   0.140   0.000    0.00
  75.000   6.30    0.000   0.000   0.000   0.140   0.000    0.00
  76.000   6.55    0.000   0.000   0.000   0.140   0.000    0.00
  77.000   7.46    0.000   0.000   0.000   0.140   0.000    0.00
  78.000   7.18    0.000   0.000   0.000   0.140   0.000    0.00
  79.000   7.47    0.000   0.000   0.000   0.140   0.000    0.00
  80.000   8.14    0.000   0.000   0.000   0.140   0.000    0.00
  81.000   8.01    0.000   0.000   0.000   0.140   0.000    0.00
  82.000   7.49    0.000   0.000   0.000   0.140   0.000    0.00
  83.000   7.76    0.000   0.000   0.000   0.140   0.000    0.00
  84.000   8.48    0.000   0.000   0.000   0.140   0.000    0.00
  85.000   8.31    0.000   0.000   0.000   0.140   0.000    0.00
  86.000   8.60    0.000   0.000   0.000   0.140   0.000    0.00
  87.000   8.11    0.000   0.000   0.000   0.140   0.000    0.00
  88.000   8.21    0.000   0.000   0.000   0.140   0.000    0.00
  89.000   8.66    0.000   0.000   0.000   0.140   0.000    0.00
  90.000   9.20    0.000   0.000   0.000   0.140   0.000    0.00
  91.000   9.84    0.000   0.000   0.000   0.140   0.000    0.00
  92.000   9.47    0.000   0.000   0.000   0.140   0.000    0.00
  93.000   8.16    0.000   0.000   0.000   0.140   0.000    0.00
  94.000   9.01    0.000   0.000   0.000   0.140   0.000    0.00
  95.000   8.47    0.000   0.000   0.000   0.140   0.000    0.00
  96.000   8.73    0.000   0.000   0.000   0.140   0.000    0.00
  97.000   8.97    0.000   0.000   0.000   0.140   0.000    0.00
  98.000   8.26    0.000   0.000   0.000   0.140   0.000    0.00
  99.000   7.64    0.000   0.000   0.000   0.140   0.000    0.00
 100.000   8.78    0.000   0.000   0.000   0.140   0.000    0.00
 101.000   9.07    0.000   0.000   0.000   0.140   0.000    0.00
 102.000   8.21    0.000   0.000   0.000   0.140   0.000    0.00
 103.000   8.34    0.000   0.000   0.000   0.140   0.000    0.00
 104.000   8.90    0.000   0.000   0.000   0.140   0.000    0.00
 105.000   9.13    0.000   0.000   0.000   0.140   0.000    0.00
 106.000   8.33    0.000   0.000   0.000   0.140   0.000    0.00
 107.000   8.46    0.000   0.000   0.000   0.140   0.000    0.00
 108.000   8.51    0.000   0.000   0.000   0.140   0.000    0.00
 109.000   9.16    0.000   0.000   0.000   0.140   0.000    0.00
 110.000   8.56    0.000   0.000   0.000   0.140   0.000    0.00
 111.000   9.18    0.000   0.000   0.000   0.140   0.000    0.00
 112.000   9.53    0.000   0.000   0.000   0.140   0.000    0.00
 113.000   9.39    0.000   0.000   0.000   0.140   0.000    0.00
 114.000   9.36    0.000   0.000   0.000   0.140   0.000    0.00
 115.000   8.65    0.000   0.000   0.000   0.140   0.000    0.00
 116.000   8.48    0.000   0.000   0.000   0.140   0.000    0.00
 117.000   8.92    0.000   0.000   0.000   0.140   0.000    0.00
 118.000   9.14    0.000   0.000   0.000   0.140   0.000    0.00
 119.000   9.66    0.000   0.000   0.000   0.140   0.000    0.00
 120.000   10.00   0.000   0.000   0.000   0.140   0.000    0.00
 121.000   9.820   0.000   0.000   0.000   0.140   0.000    0.00
 122.000   10.05   0.000   0.000   0.000   0.140   0.000    0.00
 123.000   10.15   0.000   0.000   0.000   0.140   0.000    0.00
 124.000   10.53   0.000   0.000   0.000   0.140   0.000    0.00
 125.000   11.61   0.000   0.000   0.000   0.140   0.000    0.00
 126.000   11.93   0.000   0.000   0.000   0.140   0.000    0.00
 127.000   11.08   0.000   0.000   0.000   0.140   0.000    0.00
 128.000   11.13   0.000   0.000   0.000   0.140   0.000    0.00
 129.000   11.71   0.000   0.000   0.000   0.140   0.000    0.00
 130.000   11.91   0.000   0.000   0.000   0.140   0.000    0.00
 131.000   11.08   0.000   0.000   0.000   0.140   0.000    0.00
 132.000   11.31   0.000   0.000   0.000   0.140   0.000    0.00
 133.000   11.50   0.000   0.000   0.000   0.140   0.000    0.00
 134.000   12.26   0.000   0.000   0.000   0.140   0.000    0.00
 135.000   11.69   0.000   0.000   0.000   0.140   0.000    0.00
 136.000   12.26   0.000   0.000   0.000   0.140   0.000    0.00
 137.000   12.59   0.000   0.000   0.000   0.140   0.000    0.00
 138.000   12.46   0.000   0.000   0.000   0.140   0.000    0.00
 139.000   12.47   0.000   0.000   0.000   0.140   0.000    0.00
 140.000   11.76   0.000   0.000   0.000   0.140   0.000    0.00
 141.000   11.54   0.000   0.000   0.000   0.140   0.000    0.00
 142.000   11.98   0.000   0.000   0.000   0.140   0.000    0.00
 143.000   12.17   0.000   0.000   0.000   0.140   0.000    0.00
 144.000   12.12   0.000   0.000   0.000   0.140   0.000    0.00
 145.000   12.22   0.000   0.000   0.000   0.140   0.000    0.00
 146.000   12.09   0.000   0.000   0.000   0.140   0.000    0.00
 147.000   12.58   0.000   0.000   0.000   0.140   0.000    0.00
 148.000   11.74   0.000   0.000   0.000   0.140   0.000    0.00
 149.000   11.94   0.000   0.000   0.000   0.140   0.000    0.00
 150.000   12.51   0.000   0.000   0.000   0.140   0.000    0.00
 151.000   12.64   0.000   0.000   0.000   0.140   0.000    0.00
 152.000   13.07   0.000   0.000   0.000   0.140   0.000    0.00
 153.000   13.28   0.000   0.000   0.000   0.140   0.000    0.00
 154.000   13.52   0.000   0.000   0.000   0.140   0.000    0.00
 155.000   14.04   0.000   0.000   0.000   0.140   0.000    0.00
 156.000   13.56   0.000   0.000   0.000   0.140   0.000    0.00
 157.000   14.22   0.000   0.000   0.000   0.140   0.000    0.00
 158.000   15.05   0.000   0.000   0.000   0.140   0.000    0.00
 159.000   14.68   0.000   0.000   0.000   0.140   0.000    0.00
 160.000   14.78   0.000   0.000   0.000   0.140   0.000    0.00
 161.000   14.82   0.000   0.000   0.000   0.140   0.000    0.00
 162.000   14.79   0.000   0.000   0.000   0.140   0.000    0.00
 163.000   14.21   0.000   0.000   0.000   0.140   0.000    0.00
 164.000   13.56   0.000   0.000   0.000   0.140   0.000    0.00
 165.000   13.25   0.000   0.000   0.000   0.140   0.000    0.00
 166.000   13.78   0.000   0.000   0.000   0.140   0.000    0.00
 167.000   14.25   0.000   0.000   0.000   0.140   0.000    0.00
 168.000   13.75   0.000   0.000   0.000   0.140   0.000    0.00
 169.000   14.04   0.000   0.000   0.000   0.140   0.000    0.00
 170.000   14.94   0.000   0.000   0.000   0.140   0.000    0.00
 171.000   15.29   0.000   0.000   0.000   0.140   0.000    0.00
 172.000   15.37   0.000   0.000   0.000   0.140   0.000    0.00
 173.000   15.83   0.000   0.000   0.000   0.140   0.000    0.00
 174.000   14.90   0.000   0.000   0.000   0.140   0.000    0.00
 175.000   13.86   0.000   0.000   0.000   0.140   0.000    0.00
 176.000   14.23   0.000   0.000   0.000   0.140   0.000    0.00
 177.000   15.06   0.000   0.000   0.000   0.140   0.000    0.00
 178.000   14.92   0.000   0.000   0.000   0.140   0.000    0.00
 179.000   15.93   0.000   0.000   0.000   0.140   0.000    0.00
 180.000   16.52   0.000   0.000   0.000   0.140   0.000    0.00
 181.000   16.41   0.000   0.000   0.000   0.140   0.000    0.00
 182.000   15.40   0.000   0.000   0.000   0.140   0.000    0.00
 183.000   15.01   0.000   0.000   0.000   0.140   0.000    0.00
 184.000   15.67   0.000   0.000   0.000   0.140   0.000    0.00
 185.000   16.09   0.000   0.000   0.000   0.140   0.000    0.00
 186.000   16.14   0.000   0.000   0.000   0.140   0.000    0.00
 187.000   15.86   0.000   0.000   0.000   0.140   0.000    0.00
 188.000   16.78   0.000   0.000   0.000   0.140   0.000    0.00
 189.000   16.86   0.000   0.000   0.000   0.140   0.000    0.00
 190.000   17.66   0.000   0.000   0.000   0.140   0.000    0.00
 191.000   18.03   0.000   0.000   0.000   0.140   0.000    0.00
 192.000   17.62   0.000   0.000   0.000   0.140   0.000    0.00
 193.000   16.61   0.000   0.000   0.000   0.140   0.000    0.00
 194.000   16.90   0.000   0.000   0.000   0.140   0.000    0.00
 195.000   17.77   0.000   0.000   0.000   0.140   0.000    0.00
 196.000   17.17   0.000   0.000   0.000   0.140   0.000    0.00
 197.000   18.09   0.000   0.000   0.000   0.140   0.000    0.00
 198.000   19.36   0.000   0.000   0.000   0.140   0.000    0.00
 199.000   18.80   0.000   0.000   0.000   0.140   0.000    0.00
 200.000   18.81   0.000   0.000   0.000   0.140   0.000    0.00
 201.000   18.71   0.000   0.000   0.000   0.140   0.000    0.00
 202.000   18.66   0.000   0.000   0.000   0.140   0.000    0.00
 203.000   17.96   0.000   0.000   0.000   0.140   0.000    0.00
 204.000   17.08  -0.000   0.000   0.000   0.140   0.000    0.00
 205.000   16.51   0.000   0.000   0.000   0.140   0.000    0.00
 206.000   17.18   0.000   0.000   0.000   0.140   0.000    0.00
 207.000   18.08   0.000   0.000   0.000   0.140   0.000    0.00
 208.000   17.51   0.000   0.000   0.000   0.140   0.000    0.00
 209.000   17.95   0.000   0.000   0.000   0.140   0.000    0.00
 210.000   17.38   0.000   0.000   0.000   0.140   0.000    0.00
 211.000   17.92   0.000   0.000   0.000   0.140   0.000    0.00
 212.000   19.01   0.000   0.000   0.000   0.140   0.000    0.00
 213.000   18.89   0.000   0.000   0.000   0.140   0.000    0.00
 214.000   18.77   0.000   0.000   0.000   0.140   0.000    0.00
 215.000   18.19   0.000   0.000   0.000   0.140   0.000    0.00
 216.000   18.87   0.000   0.000   0.000   0.140   0.000    0.00
 217.000   18.19   0.000   0.000   0.000   0.140   0.000    0.00
 218.000   17.62   0.000   0.000   0.000   0.140   0.000    0.00
 219.000   18.09   0.000   0.000   0.000   0.140   0.000    0.00
 220.000   19.36   0.000   0.000   0.000   0.140   0.000    0.00
 221.000   18.80   0.000   0.000   0.000   0.140   0.000    0.00
 222.000   18.81   0.000   0.000   0.000   0.140   0.000    0.00
 223.000   18.71   0.000   0.000   0.000   0.140   0.000    0.00
 224.000   18.66   0.000   0.000   0.000   0.140   0.000    0.00
 225.000   18.81   0.000   0.000   0.000   0.140   0.000    0.00
 226.000   19.08   0.000   0.000   0.000   0.140   0.000    0.00
 227.000   19.99   0.000   0.000   0.000   0.140   0.000    0.00
 228.000   20.44   0.000   0.000   0.000   0.140   0.000    0.00
 229.000   20.48   0.000   0.000   0.000   0.140   0.000    0.00
 230.000   20.23   0.000   0.000   0.000   0.140   0.000    0.00
 231.000   20.44   0.000   0.000   0.000   0.140   0.000    0.00
 232.000   20.48   0.000   0.000   0.000   0.140   0.000    0.00
 233.000   20.15   0.000   0.000   0.000   0.140   0.000    0.00
 234.000   20.62   0.000   0.000   0.000   0.140   0.000    0.00
 235.000   21.10   0.000   0.000   0.000   0.140   0.000    0.00
 236.000   21.71   0.000   0.000   0.000   0.140   0.000    0.00
 237.000   21.99   0.000   0.000   0.000   0.140   0.000    0.00
 238.000   21.33   0.000   0.000   0.000   0.140   0.000    0.00
 239.000   21.86   0.000   0.000   0.000   0.140   0.000    0.00
 240.000   22.74   0.000   0.000   0.000   0.140   0.000    0.00
 241.000   22.31   0.000   0.000   0.000   0.140   0.000    0.00
 242.000   22.57   0.000   0.000   0.000   0.140   0.000    0.00
 243.000   22.89   0.000   0.000   0.000   0.140   0.000    0.00
 244.000   22.63   0.000   0.000   0.000   0.140   0.000    0.00
 245.000   21.80   0.000   0.000   0.000   0.140   0.000    0.00
 246.000   23.08   0.000   0.000   0.000   0.140   0.000    0.00
 247.000   23.63   0.000   0.000   0.000   0.140   0.000    0.00
 248.000   23.76   0.000   0.000   0.000   0.140   0.000    0.00
 249.000   22.98   0.000   0.000   0.000   0.140   0.000    0.00
 250.000   22.67   0.000   0.000   0.000   0.140   0.000    0.00
 251.000   23.31   0.000   0.000   0.000   0.140   0.000    0.00
 252.000   23.11   0.000   0.000   0.000   0.140   0.000    0.00
 253.000   23.18   0.000   0.000   0.000   0.140   0.000    0.00
 254.000   23.07   0.000   0.000   0.000   0.140   0.000    0.00
 255.000   22.95   0.000   0.000   0.000   0.140   0.000    0.00
 256.000   22.37   0.000   0.000   0.000   0.140   0.000    0.00
 257.000   21.80   0.000   0.000   0.000   0.140   0.000    0.00
 258.000   21.60   0.000   0.000   0.000   0.140   0.000    0.00
 259.000   22.03   0.000   0.000   0.000   0.140   0.000    0.00
 260.000   23.33   0.000   0.000   0.000   0.140   0.000    0.00
 261.000   23.51   0.000   0.000   0.000   0.140   0.000    0.00
 262.000   23.64   0.000   0.000   0.000   0.140   0.000    0.00
 263.000   23.01   0.000   0.000   0.000   0.140   0.000    0.00
 264.000   23.86   0.000   0.000   0.000   0.140   0.000    0.00
 265.000   23.34   0.000   0.000   0.000   0.140   0.000    0.00
 266.000   22.64   0.000   0.000   0.000   0.140   0.000    0.00
 267.000   22.55   0.000   0.000   0.000   0.140   0.000    0.00
 268.000   22.13   0.000   0.000   0.000   0.140   0.000    0.00
 269.000   23.62   0.000   0.000   0.000   0.140   0.000    0.00
 270.000   24.12   0.000   0.000   0.000   0.140   0.000    0.00
 271.000   23.38   0.000   0.000   0.000   0.140   0.000    0.00
 272.000   23.13   0.000   0.000   0.000   0.140   0.000    0.00
 273.000   24.32   0.000   0.000   0.000   0.140   0.000    0.00
 274.000   24.65   0.000   0.000   0.000   0.140   0.000    0.00
 275.000   24.97   0.000   0.000   0.000   0.140   0.000    0.00
 276.000   23.81   0.000   0.000   0.000   0.140   0.000    0.00
 277.000   24.41   0.000   0.000   0.000   0.140   0.000    0.00
 278.000   25.25   0.000   0.000   0.000   0.140   0.000    0.00
 279.000   25.08   0.000   0.000   0.000   0.140   0.000    0.00
 280.000   24.56   0.000   0.000   0.000   0.140   0.000    0.00
 281.000   25.25   0.000   0.000   0.000   0.140   0.000    0.00
 282.000   25.91   0.000   0.000   0.000   0.140   0.000    0.00
 283.000   27.18   0.000   0.000   0.000   0.140   0.000    0.00
 284.000   27.50   0.000   0.000   0.000   0.140   0.000    0.00
 285.000   26.66   0.000   0.000   0.000   0.140   0.000    0.00
 286.000   27.18   0.000   0.000   0.000   0.140   0.000    0.00
 287.000   26.02   0.000   0.000   0.000   0.140   0.000    0.00
 288.000   26.49   0.000   0.000   0.000   0.140   0.000    0.00
 289.000   26.32   0.000   0.000   0.000   0.140   0.000    0.00
 290.000   26.02   0.000   0.000   0.000   0.140   0.000    0.00
 291.000   27.24   0.000   0.000   0.000   0.140   0.000    0.00
 292.000   27.77   0.000   0.000   0.000   0.140   0.000    0.00
 293.000   27.59   0.000   0.000   0.000   0.140   0.000    0.00
 294.000   29.00   0.000   0.000   0.000   0.140   0.000    0.00
 295.000   28.53   0.000   0.000   0.000   0.140   0.000    0.00
 296.000   27.53   0.000   0.000   0.000   0.140   0.000    0.00
 297.000   28.04   0.000   0.000   0.000   0.140   0.000    0.00
 298.000   27.92   0.000   0.000   0.000   0.140   0.000    0.00
 299.000   27.56   0.000   0.000   0.000   0.140   0.000    0.00
 300.000   27.63   0.000   0.000   0.000   0.140   0.000    0.00
 301.000   27.47   0.000   0.000   0.000   0.140   0.000    0.00
 302.000   28.35   0.000   0.000   0.000   0.140   0.000    0.00
